Version 4.1
SHEET 1 2740 1040
WIRE -2112 -672 -2112 -704
WIRE -2240 -544 -2256 -544
WIRE -2112 -544 -2112 -592
WIRE -2112 -544 -2176 -544
WIRE -2256 -528 -2256 -544
WIRE -2112 -496 -2112 -544
WIRE -2112 -496 -2272 -496
WIRE -2112 -448 -2112 -496
WIRE -1456 -432 -1632 -432
WIRE -1776 -416 -1776 -432
WIRE -1632 -352 -1632 -432
WIRE -1584 -352 -1632 -352
WIRE -1456 -336 -1456 -432
WIRE -1456 -336 -1520 -336
WIRE -1424 -336 -1456 -336
WIRE -2272 -320 -2272 -496
WIRE -2240 -320 -2272 -320
WIRE -1936 -320 -1984 -320
WIRE -1920 -320 -1936 -320
WIRE -1776 -320 -1776 -336
WIRE -1776 -320 -1824 -320
WIRE -1584 -320 -1776 -320
WIRE -1936 -304 -1936 -320
WIRE -1824 -304 -1824 -320
WIRE -1776 -304 -1776 -320
WIRE -1552 -288 -1552 -304
WIRE -1936 -224 -1936 -240
WIRE -1824 -208 -1824 -240
WIRE -1776 -208 -1776 -224
WIRE -2112 -160 -2112 -192
WIRE -176 -80 -352 -80
WIRE 48 -80 -96 -80
WIRE -1280 -64 -1296 -64
WIRE -1248 -64 -1264 -64
WIRE -1216 -64 -1232 -64
WIRE 1456 -64 1264 -64
WIRE 1664 -64 1520 -64
WIRE -2032 -48 -2032 -64
WIRE -1424 -48 -1472 -48
WIRE -1328 -48 -1328 -80
WIRE -1328 -48 -1360 -48
WIRE -1280 -48 -1280 -64
WIRE -1248 -48 -1248 -64
WIRE -1216 -48 -1216 -64
WIRE 2064 -48 1872 -48
WIRE 2272 -48 2128 -48
WIRE -2464 -32 -2512 -32
WIRE -2368 -32 -2400 -32
WIRE -2080 -32 -2080 -64
WIRE -1920 -32 -1920 -48
WIRE -1888 -32 -1920 -32
WIRE -1792 -32 -1824 -32
WIRE -1744 -32 -1792 -32
WIRE -1648 -32 -1680 -32
WIRE -1472 -32 -1472 -48
WIRE 912 -32 720 -32
WIRE -1648 -16 -1648 -32
WIRE -1328 0 -1328 -48
WIRE -1296 0 -1296 -64
WIRE -1264 0 -1264 -64
WIRE -1232 0 -1232 -64
WIRE -2512 64 -2512 -32
WIRE -2512 64 -2720 64
WIRE -2480 64 -2512 64
WIRE -2368 64 -2368 -32
WIRE -2368 64 -2400 64
WIRE -2224 64 -2368 64
WIRE -2080 64 -2080 16
WIRE -2080 64 -2144 64
WIRE -2032 64 -2032 32
WIRE -2032 64 -2080 64
WIRE -1920 64 -2032 64
WIRE -1792 64 -1792 -32
WIRE -1792 64 -1840 64
WIRE -1632 64 -1792 64
WIRE -1424 64 -1632 64
WIRE -1360 64 -1424 64
WIRE -1152 96 -1200 96
WIRE -928 96 -1152 96
WIRE -816 96 -864 96
WIRE -736 96 -816 96
WIRE -816 112 -816 96
WIRE -560 112 -672 112
WIRE -448 112 -560 112
WIRE -352 112 -352 -80
WIRE -352 112 -384 112
WIRE -304 112 -352 112
WIRE -208 112 -240 112
WIRE -128 112 -208 112
WIRE 720 112 720 -32
WIRE 784 112 720 112
WIRE -2496 128 -2608 128
WIRE -2480 128 -2496 128
WIRE -2352 128 -2400 128
WIRE -2240 128 -2352 128
WIRE -2048 128 -2160 128
WIRE -2000 128 -2048 128
WIRE -1920 128 -2000 128
WIRE -1792 128 -1840 128
WIRE -1552 128 -1792 128
WIRE -1424 128 -1552 128
WIRE -1360 128 -1424 128
WIRE -736 128 -768 128
WIRE -560 128 -560 112
WIRE -208 128 -208 112
WIRE 48 128 48 -80
WIRE 48 128 -64 128
WIRE 112 128 48 128
WIRE 912 128 912 -32
WIRE 912 128 848 128
WIRE 976 128 912 128
WIRE 1152 128 976 128
WIRE 1264 128 1264 -64
WIRE 1264 128 1232 128
WIRE 1296 128 1264 128
WIRE 1408 128 1376 128
WIRE 1488 128 1408 128
WIRE -128 144 -160 144
WIRE 112 144 112 128
WIRE 352 144 112 144
WIRE 400 144 352 144
WIRE 560 144 464 144
WIRE 592 144 560 144
WIRE 688 144 656 144
WIRE 784 144 688 144
WIRE 1408 144 1408 128
WIRE 1664 144 1664 -64
WIRE 1664 144 1552 144
WIRE 1760 144 1664 144
WIRE 1872 144 1872 -48
WIRE 1872 144 1840 144
WIRE 1904 144 1872 144
WIRE 2016 144 1984 144
WIRE 2096 144 2016 144
WIRE -2720 160 -2720 64
WIRE 1488 160 1456 160
WIRE 1664 160 1664 144
WIRE 2272 160 2272 -48
WIRE 2272 160 2160 160
WIRE 2336 160 2272 160
WIRE -2832 176 -2928 176
WIRE -2768 176 -2832 176
WIRE -2048 176 -2048 128
WIRE 816 176 816 160
WIRE 2096 176 2064 176
WIRE 2272 176 2272 160
WIRE -2928 192 -2928 176
WIRE -2000 192 -2000 128
WIRE -2496 208 -2496 128
WIRE -2464 208 -2496 208
WIRE -2352 208 -2352 128
WIRE -2352 208 -2400 208
WIRE -1328 208 -1328 192
WIRE -1232 208 -1232 192
WIRE -816 208 -816 192
WIRE 2016 208 2016 144
WIRE -2768 224 -2800 224
WIRE -1280 224 -1280 192
WIRE -768 224 -768 128
WIRE -560 224 -560 208
WIRE -560 224 -768 224
WIRE -208 224 -208 208
WIRE -1920 240 -1920 224
WIRE -1888 240 -1920 240
WIRE -1792 240 -1792 128
WIRE -1792 240 -1824 240
WIRE -1744 240 -1792 240
WIRE -1648 240 -1680 240
WIRE -560 240 -560 224
WIRE -160 240 -160 144
WIRE 48 240 48 128
WIRE 48 240 -160 240
WIRE 352 240 352 144
WIRE 400 240 352 240
WIRE 496 240 480 240
WIRE 592 240 496 240
WIRE 688 240 688 144
WIRE 688 240 672 240
WIRE 912 240 912 128
WIRE 1408 240 1408 208
WIRE -2720 256 -2720 240
WIRE -1648 256 -1648 240
WIRE 1456 256 1456 160
WIRE 1664 256 1664 240
WIRE 1664 256 1456 256
WIRE -2048 272 -2048 256
WIRE -2000 272 -2000 240
WIRE 1664 272 1664 256
WIRE 2064 272 2064 176
WIRE 2272 272 2272 256
WIRE 2272 272 2064 272
WIRE -2928 288 -2928 272
WIRE 496 288 496 240
WIRE 2272 288 2272 272
WIRE -2608 320 -2608 128
WIRE -2608 320 -2720 320
WIRE 2016 320 2016 272
WIRE -2720 352 -2720 320
WIRE 560 352 560 144
WIRE -2832 368 -2832 176
WIRE -2768 368 -2832 368
WIRE 1664 384 1664 352
WIRE 2272 400 2272 368
WIRE -2800 416 -2800 224
WIRE -2768 416 -2800 416
WIRE -1632 416 -1632 64
WIRE -1552 416 -1552 128
WIRE -2800 432 -2800 416
WIRE 912 432 912 320
WIRE 912 432 848 432
WIRE 496 448 496 352
WIRE 560 448 560 432
WIRE 560 448 496 448
WIRE 672 448 560 448
WIRE 784 448 672 448
WIRE -2720 464 -2720 432
WIRE 880 464 848 464
WIRE 912 480 912 432
WIRE 672 528 672 448
WIRE 880 528 880 464
WIRE 880 528 672 528
WIRE -1632 544 -1632 496
WIRE -1584 544 -1632 544
WIRE -1552 544 -1552 496
WIRE -1552 544 -1584 544
WIRE -2928 560 -2928 544
WIRE -1696 624 -1728 624
WIRE -1584 624 -1584 544
WIRE -1584 624 -1616 624
WIRE -2928 672 -2928 640
WIRE -2528 672 -2528 480
WIRE -1728 720 -1728 624
WIRE -1696 720 -1728 720
WIRE -1584 720 -1584 624
WIRE -1584 720 -1632 720
WIRE -2928 784 -2928 752
WIRE -1584 800 -1584 720
WIRE -1584 800 -1616 800
WIRE -1840 816 -1872 816
WIRE -1728 816 -1728 720
WIRE -1728 816 -1760 816
WIRE -1680 816 -1728 816
WIRE -1536 832 -1616 832
WIRE -1648 864 -1648 848
WIRE -2928 896 -2928 864
FLAG -1536 832 Vref
FLAG -1872 816 Vrld
FLAG -1648 784 Vcc
FLAG -1648 864 0
FLAG -2112 -704 0
FLAG -2112 -160 0
FLAG -1920 -320 Vcc
FLAG -1936 -224 0
FLAG -2256 -528 0
FLAG -1424 -336 Vref
FLAG -1552 -288 0
FLAG -1552 -368 Vcc
FLAG -1776 -432 Vcc
FLAG -1776 -208 0
FLAG -1824 -208 0
FLAG -2928 288 0
FLAG -2800 432 0
FLAG -208 224 Vref
FLAG -96 96 0
FLAG -96 160 Vcc
FLAG -816 208 Vref
FLAG -704 80 0
FLAG -704 144 Vcc
FLAG 112 128 VFts
FLAG 816 176 0
FLAG 816 96 Vcc
FLAG 976 128 Vnotch
FLAG 912 560 Vref
FLAG 816 480 Vcc
FLAG 816 416 0
FLAG -2928 544 VCM
FLAG -2720 256 Potential_Corp
FLAG -2720 464 Potential_Corp
FLAG -560 320 Vref
FLAG -1328 208 0
FLAG -1216 -48 0
FLAG -1248 -48 0
FLAG -1328 -80 Vcc
FLAG -1280 224 Vcc
FLAG -1152 96 VINA
FLAG -1424 64 Vinp
FLAG -1424 128 Vinn
FLAG -1472 -32 0
FLAG -1280 -48 0
FLAG 2016 320 Vref
FLAG 2128 128 0
FLAG 2128 192 Vcc
FLAG 2336 160 Vekg
FLAG 2272 400 Vref
FLAG 1408 240 Vref
FLAG 1520 112 0
FLAG 1520 176 Vcc
FLAG 1664 384 Vref
FLAG -1232 208 Vref
FLAG -2528 480 Potential_Corp
FLAG -2528 752 0
FLAG -2576 688 VCM
FLAG -2928 896 0
FLAG -2576 736 Vrld
FLAG -1648 -16 0
FLAG -1920 -48 Vcc
FLAG -1648 256 0
FLAG -1920 224 Vcc
FLAG -2048 272 0
FLAG -2000 272 0
FLAG -2032 -64 0
FLAG -2080 -64 0
SYMBOL res -1568 400 R0
SYMATTR InstName R1
SYMATTR Value 10Meg
SYMBOL res -1648 400 R0
WINDOW 0 -39 52 Left 2
WINDOW 3 -70 81 Left 2
SYMATTR InstName R2
SYMATTR Value 10Meg
SYMBOL OpAmps\\opamp2 -1648 752 M0
WINDOW 3 -42 144 Left 2
SYMATTR Value ad8534
SYMATTR InstName U1
SYMBOL cap -1632 704 R90
WINDOW 0 0 32 VBottom 2
WINDOW 3 -13 69 VTop 2
SYMATTR InstName C1
SYMATTR Value 1n
SYMBOL res -1744 800 R90
WINDOW 0 0 56 VBottom 2
WINDOW 3 32 56 VTop 2
SYMATTR InstName R3
SYMATTR Value 1Meg
SYMBOL PowerProducts\\ADP151-3.3 -2112 -320 R0
SYMATTR InstName U2
SYMBOL voltage -2112 -576 R180
WINDOW 0 24 96 Left 2
WINDOW 3 24 16 Left 2
SYMATTR InstName Vusb1
SYMATTR Value 5
SYMBOL cap -1952 -304 R0
SYMATTR InstName C3
SYMATTR Value 1µ
SYMATTR SpiceLine Rser=0.5
SYMBOL cap -2240 -528 R270
WINDOW 0 32 32 VTop 2
WINDOW 3 0 32 VBottom 2
SYMATTR InstName C4
SYMATTR Value 1µ
SYMBOL OpAmps\\opamp2 -1552 -400 R0
SYMATTR InstName U3
SYMATTR Value ad8534
SYMBOL res -1792 -432 R0
SYMATTR InstName R6
SYMATTR Value 100k
SYMBOL res -1792 -320 R0
WINDOW 3 36 59 Left 2
SYMATTR Value 100k
SYMATTR InstName R7
SYMBOL cap -1808 -240 R180
WINDOW 0 24 56 Left 2
WINDOW 3 20 15 Left 2
SYMATTR InstName C5
SYMATTR Value 1µ
SYMBOL e -2720 144 R0
WINDOW 3 26 81 Left 2
SYMATTR Value 0.5
SYMATTR InstName E1
SYMBOL e -2720 336 R0
WINDOW 3 14 92 Left 2
SYMATTR Value -0.5
SYMATTR InstName E2
SYMBOL voltage -2928 176 R0
WINDOW 3 -863 149 Left 2
WINDOW 123 0 0 Left 0
WINDOW 39 0 0 Left 0
SYMATTR Value PWL file=C:\Users\botaa\Documents\Licenta\Licenta\AchizitionareSemnal\ekg_signal2.txt
SYMATTR InstName V1
SYMBOL voltage -2928 656 R0
WINDOW 0 24 29 Left 2
SYMATTR InstName V2
SYMATTR Value SINE(0 100m 50)
SYMBOL voltage -2928 768 R0
WINDOW 0 27 34 Left 2
WINDOW 3 27 76 Left 2
WINDOW 123 0 0 Left 0
WINDOW 39 0 0 Left 0
SYMATTR InstName V3
SYMATTR Value SINE(0 200m 0.02)
SYMBOL OpAmps\\opamp2 -96 192 M180
SYMATTR InstName U4
SYMATTR Value ad8534
SYMBOL OpAmps\\opamp2 -704 176 M180
SYMATTR InstName U5
SYMATTR Value ad8534
SYMBOL cap -864 80 R90
WINDOW 0 0 32 VBottom 2
WINDOW 3 32 32 VTop 2
SYMATTR InstName C7
SYMATTR Value 10µ
SYMBOL res -832 96 R0
WINDOW 0 -43 68 Left 2
WINDOW 3 -63 92 Left 2
SYMATTR InstName R8
SYMATTR Value 319k
SYMBOL cap -384 96 R90
WINDOW 0 0 32 VBottom 2
WINDOW 3 32 32 VTop 2
SYMATTR InstName C8
SYMATTR Value 10µ
SYMBOL cap -240 96 R90
WINDOW 0 0 32 VBottom 2
WINDOW 3 32 32 VTop 2
SYMATTR InstName C9
SYMATTR Value 10µ
SYMBOL res -80 -96 R90
WINDOW 0 0 56 VBottom 2
WINDOW 3 32 56 VTop 2
SYMATTR InstName R10
SYMATTR Value 159k
SYMBOL res -224 112 R0
WINDOW 0 -47 75 Left 2
WINDOW 3 -57 96 Left 2
SYMATTR InstName R11
SYMATTR Value 637k
SYMBOL OpAmps\\opamp2 816 64 R0
SYMATTR InstName U6
SYMATTR Value ad8534
SYMBOL res 896 224 R0
SYMATTR InstName R12
SYMATTR Value 1k
SYMBOL res 896 464 R0
SYMATTR InstName R13
SYMATTR Value 10k
SYMBOL cap 656 128 R90
WINDOW 0 0 32 VBottom 2
WINDOW 3 32 32 VTop 2
SYMATTR InstName C10
SYMATTR Value 100n
SYMBOL cap 464 128 R90
WINDOW 0 0 32 VBottom 2
WINDOW 3 32 32 VTop 2
SYMATTR InstName C11
SYMATTR Value 100n
SYMBOL res 688 224 R90
WINDOW 0 0 56 VBottom 2
WINDOW 3 32 56 VTop 2
SYMATTR InstName R14
SYMATTR Value 31.8k
SYMBOL res 496 224 R90
WINDOW 0 0 56 VBottom 2
WINDOW 3 32 56 VTop 2
SYMATTR InstName R15
SYMATTR Value 31.8k
SYMBOL cap 480 288 R0
WINDOW 0 -51 34 Left 2
WINDOW 3 -52 54 Left 2
SYMATTR InstName C12
SYMATTR Value 200n
SYMBOL res 544 336 R0
SYMATTR InstName R16
SYMATTR Value 15.9k
SYMBOL OpAmps\\opamp2 816 512 R180
SYMATTR InstName U7
SYMATTR Value ad8534
SYMBOL res -576 112 R0
SYMATTR InstName R26
SYMATTR Value 9k
SYMBOL res -576 224 R0
SYMATTR InstName R27
SYMATTR Value 1k
SYMBOL OpAmps\\MAX41400 -1328 96 R0
WINDOW 3 141 -89 Left 2
SYMATTR InstName U10
SYMBOL cap -1360 -64 R90
WINDOW 0 0 32 VBottom 2
WINDOW 3 31 44 VTop 2
SYMATTR InstName C17
SYMATTR Value 100n
SYMBOL res 1856 128 R90
WINDOW 0 0 56 VBottom 2
WINDOW 3 32 56 VTop 2
SYMATTR InstName R5
SYMATTR Value 8.59k
SYMBOL res 2000 128 R90
WINDOW 0 0 56 VBottom 2
WINDOW 3 37 52 VTop 2
SYMATTR InstName R17
SYMATTR Value 277k
SYMBOL cap 2128 -64 R90
WINDOW 0 0 32 VBottom 2
WINDOW 3 32 32 VTop 2
SYMATTR InstName C2
SYMATTR Value 110n
SYMBOL OpAmps\\opamp2 2128 224 M180
WINDOW 3 24 87 Left 2
SYMATTR Value ad8534
SYMATTR InstName U8
SYMBOL cap 2000 208 R0
WINDOW 0 -30 46 Left 2
WINDOW 3 -32 67 Left 2
SYMATTR InstName C13
SYMATTR Value 4.3n
SYMBOL res 2256 160 R0
SYMATTR InstName R18
SYMATTR Value 2.99k
SYMBOL res 2256 272 R0
SYMATTR InstName R19
SYMATTR Value 6.81k
SYMBOL res 1248 112 R90
WINDOW 0 0 56 VBottom 2
WINDOW 3 32 56 VTop 2
SYMATTR InstName R20
SYMATTR Value 3.94k
SYMBOL res 1392 112 R90
WINDOW 0 0 56 VBottom 2
WINDOW 3 29 57 VTop 2
SYMATTR InstName R21
SYMATTR Value 23.6k
SYMBOL cap 1520 -80 R90
WINDOW 0 0 32 VBottom 2
WINDOW 3 32 32 VTop 2
SYMATTR InstName C14
SYMATTR Value 110n
SYMBOL OpAmps\\opamp2 1520 208 M180
WINDOW 3 22 82 Left 2
SYMATTR Value ad8534
SYMATTR InstName U9
SYMBOL cap 1392 144 R0
WINDOW 0 -23 44 Left 2
WINDOW 3 -41 67 Left 2
SYMATTR InstName C15
SYMATTR Value 110n
SYMBOL res 1648 144 R0
SYMATTR InstName R22
SYMATTR Value 7.1k
SYMBOL res 1648 256 R0
SYMATTR InstName R23
SYMATTR Value 2.87k
SYMBOL res -1600 608 R90
WINDOW 0 0 56 VBottom 2
WINDOW 3 32 56 VTop 2
SYMATTR InstName R4
SYMATTR Value 10Meg
SYMBOL voltage -2928 544 R0
WINDOW 123 0 0 Left 0
WINDOW 39 0 0 Left 0
SYMATTR InstName V4
SYMATTR Value SINE(0 100m 200)
SYMBOL e -2528 656 R0
SYMATTR InstName E3
SYMATTR Value -1
SYMBOL res -2128 48 R90
WINDOW 0 0 56 VBottom 2
WINDOW 3 32 56 VTop 2
SYMATTR InstName R9
SYMATTR Value 20k
SYMBOL res -2144 112 R90
WINDOW 0 16 102 VBottom 2
WINDOW 3 32 56 VTop 2
SYMATTR InstName R24
SYMATTR Value 20k
SYMBOL sw -2048 272 R180
WINDOW 0 21 18 Left 2
SYMATTR InstName LampaNeon1
SYMBOL sw -2032 -64 R0
SYMATTR InstName S1
SYMBOL res -1824 48 R90
WINDOW 0 0 56 VBottom 2
WINDOW 3 32 56 VTop 2
SYMATTR InstName R25
SYMATTR Value 10k
SYMBOL res -1824 112 R90
WINDOW 0 15 104 VBottom 2
WINDOW 3 32 56 VTop 2
SYMATTR InstName R28
SYMATTR Value 10k
SYMBOL zener -1680 -48 R90
WINDOW 0 -4 32 VBottom 2
WINDOW 3 -68 -16 VTop 2
SYMATTR InstName D1
SYMATTR Value DI_BZX84C3V3
SYMATTR Prefix X
SYMBOL zener -1824 -48 R90
WINDOW 0 -4 32 VBottom 2
WINDOW 3 -66 36 VTop 2
SYMATTR InstName D2
SYMATTR Value DI_BZX84C3V3
SYMATTR Prefix X
SYMBOL zener -1680 224 R90
WINDOW 0 -4 32 VBottom 2
WINDOW 3 36 32 VTop 2
SYMATTR InstName D3
SYMATTR Value DI_BZX84C3V3
SYMATTR Prefix X
SYMBOL zener -1824 224 R90
WINDOW 0 -4 32 VBottom 2
WINDOW 3 36 74 VTop 2
SYMATTR InstName D4
SYMATTR Value DI_BZX84C3V3
SYMATTR Prefix X
SYMBOL res -2384 48 R90
WINDOW 0 0 56 VBottom 2
WINDOW 3 -17 11 VTop 2
SYMATTR InstName R29
SYMATTR Value 58k
SYMBOL res -2384 112 R90
WINDOW 0 0 56 VBottom 2
WINDOW 3 32 56 VTop 2
SYMATTR InstName R30
SYMATTR Value 57k
SYMBOL cap -2400 -48 R90
WINDOW 0 0 32 VBottom 2
WINDOW 3 32 32 VTop 2
SYMATTR InstName C6
SYMATTR Value 47n
SYMBOL cap -2400 192 R90
WINDOW 0 0 32 VBottom 2
WINDOW 3 32 32 VTop 2
SYMATTR InstName C16
SYMATTR Value 47n
TEXT -1688 -184 Left 2 !.lib ad8534.cir
TEXT -1688 -160 Left 2 !.tran 0 35 30 uic
TEXT -1576 -216 Left 2 !.model SW SW(Vt=90 Vh=-5 Ron=0.1 Roff=1G)
TEXT -1336 -176 Left 2 !.inc BZX84C3V3.spice.txt
