Version 4.1
SHEET 1 2096 1600
WIRE -2848 -208 -2848 -240
WIRE -2976 -80 -2992 -80
WIRE -2848 -80 -2848 -128
WIRE -2848 -80 -2912 -80
WIRE -2992 -64 -2992 -80
WIRE -2848 -32 -2848 -80
WIRE -2848 -32 -3008 -32
WIRE -2848 16 -2848 -32
WIRE -2016 48 -2192 48
WIRE -2336 64 -2336 48
WIRE -2192 128 -2192 48
WIRE -2144 128 -2192 128
WIRE -3008 144 -3008 -32
WIRE -2976 144 -3008 144
WIRE -2672 144 -2720 144
WIRE -2592 144 -2672 144
WIRE -2544 144 -2592 144
WIRE -2016 144 -2016 48
WIRE -2016 144 -2080 144
WIRE -1984 144 -2016 144
WIRE -2672 160 -2672 144
WIRE -2592 160 -2592 144
WIRE -2336 160 -2336 144
WIRE -2336 160 -2384 160
WIRE -2144 160 -2336 160
WIRE -2384 176 -2384 160
WIRE -2336 176 -2336 160
WIRE -2112 192 -2112 176
WIRE -2672 240 -2672 224
WIRE -2592 240 -2592 224
WIRE -2384 272 -2384 240
WIRE -2336 272 -2336 256
WIRE -2848 304 -2848 272
WIRE -1216 496 -1392 496
WIRE -992 496 -1136 496
WIRE -608 512 -784 512
WIRE -384 512 -528 512
WIRE -2048 528 -2064 528
WIRE -2016 528 -2032 528
WIRE -1984 528 -2000 528
WIRE 1024 528 832 528
WIRE 1232 528 1088 528
WIRE -2848 544 -2848 528
WIRE -2192 544 -2240 544
WIRE -2096 544 -2096 512
WIRE -2096 544 -2128 544
WIRE -2048 544 -2048 528
WIRE -2016 544 -2016 528
WIRE -1984 544 -1984 528
WIRE 1632 544 1440 544
WIRE 1840 544 1696 544
WIRE -2896 560 -2896 528
WIRE -2736 560 -2736 544
WIRE -2704 560 -2736 560
WIRE -2608 560 -2640 560
WIRE -2560 560 -2608 560
WIRE -2464 560 -2496 560
WIRE -2240 560 -2240 544
WIRE 480 560 288 560
WIRE -2464 576 -2464 560
WIRE -2096 592 -2096 544
WIRE -2064 592 -2064 528
WIRE -2032 592 -2032 528
WIRE -2000 592 -2000 528
WIRE -3824 656 -3984 656
WIRE -3616 656 -3824 656
WIRE -3216 656 -3216 624
WIRE -3216 656 -3536 656
WIRE -3040 656 -3216 656
WIRE -2896 656 -2896 608
WIRE -2896 656 -2960 656
WIRE -2848 656 -2848 624
WIRE -2848 656 -2896 656
WIRE -2736 656 -2848 656
WIRE -2608 656 -2608 560
WIRE -2608 656 -2656 656
WIRE -2400 656 -2608 656
WIRE -2192 656 -2400 656
WIRE -2128 656 -2192 656
WIRE -1920 688 -1968 688
WIRE -1488 688 -1920 688
WIRE -1392 688 -1392 496
WIRE -1392 688 -1424 688
WIRE -1360 688 -1392 688
WIRE -1248 688 -1296 688
WIRE -1168 688 -1248 688
WIRE -1248 704 -1248 688
WIRE -992 704 -992 496
WIRE -992 704 -1104 704
WIRE -880 704 -992 704
WIRE -784 704 -784 512
WIRE -784 704 -816 704
WIRE -736 704 -784 704
WIRE -640 704 -672 704
WIRE -560 704 -640 704
WIRE 288 704 288 560
WIRE 352 704 288 704
WIRE -3488 720 -3616 720
WIRE -3280 720 -3408 720
WIRE -3104 720 -3280 720
WIRE -2864 720 -3024 720
WIRE -2816 720 -2864 720
WIRE -2736 720 -2816 720
WIRE -2608 720 -2656 720
WIRE -2320 720 -2608 720
WIRE -2176 720 -2320 720
WIRE -2128 720 -2176 720
WIRE -1168 720 -1200 720
WIRE -992 720 -992 704
WIRE -640 720 -640 704
WIRE -384 720 -384 512
WIRE -384 720 -496 720
WIRE -320 720 -384 720
WIRE 480 720 480 560
WIRE 480 720 416 720
WIRE 544 720 480 720
WIRE 720 720 544 720
WIRE 832 720 832 528
WIRE 832 720 800 720
WIRE 864 720 832 720
WIRE 976 720 944 720
WIRE 1056 720 976 720
WIRE -560 736 -592 736
WIRE -384 736 -384 720
WIRE -320 736 -320 720
WIRE -80 736 -320 736
WIRE -32 736 -80 736
WIRE 128 736 32 736
WIRE 160 736 128 736
WIRE 256 736 224 736
WIRE 352 736 256 736
WIRE 976 736 976 720
WIRE 1232 736 1232 528
WIRE 1232 736 1120 736
WIRE 1328 736 1232 736
WIRE 1440 736 1440 544
WIRE 1440 736 1408 736
WIRE 1472 736 1440 736
WIRE 1584 736 1552 736
WIRE 1664 736 1584 736
WIRE -3984 752 -3984 656
WIRE -3824 752 -3824 656
WIRE -3280 752 -3280 720
WIRE 1056 752 1024 752
WIRE 1232 752 1232 736
WIRE 1840 752 1840 544
WIRE 1840 752 1728 752
WIRE 1904 752 1840 752
WIRE -4096 768 -4192 768
WIRE -4032 768 -4096 768
WIRE -2864 768 -2864 720
WIRE 384 768 384 752
WIRE 1664 768 1632 768
WIRE 1840 768 1840 752
WIRE -4192 784 -4192 768
WIRE -2816 784 -2816 720
WIRE -2096 800 -2096 784
WIRE -1248 800 -1248 784
WIRE 1584 800 1584 736
WIRE -4032 816 -4064 816
WIRE -2048 816 -2048 784
WIRE -1200 816 -1200 720
WIRE -992 816 -992 800
WIRE -992 816 -1200 816
WIRE -640 816 -640 800
WIRE -2736 832 -2736 816
WIRE -2704 832 -2736 832
WIRE -2608 832 -2608 720
WIRE -2608 832 -2640 832
WIRE -2560 832 -2608 832
WIRE -2464 832 -2496 832
WIRE -992 832 -992 816
WIRE -592 832 -592 736
WIRE -384 832 -384 816
WIRE -384 832 -592 832
WIRE -80 832 -80 736
WIRE -32 832 -80 832
WIRE 64 832 48 832
WIRE 160 832 64 832
WIRE 256 832 256 736
WIRE 256 832 240 832
WIRE 480 832 480 720
WIRE 976 832 976 800
WIRE -3984 848 -3984 832
WIRE -2464 848 -2464 832
WIRE -384 848 -384 832
WIRE 1024 848 1024 752
WIRE 1232 848 1232 832
WIRE 1232 848 1024 848
WIRE -2864 864 -2864 848
WIRE -2816 864 -2816 832
WIRE 1232 864 1232 848
WIRE 1632 864 1632 768
WIRE 1840 864 1840 848
WIRE 1840 864 1632 864
WIRE -4192 880 -4192 864
WIRE -2000 880 -2000 784
WIRE 64 880 64 832
WIRE 1840 880 1840 864
WIRE -3616 912 -3616 720
WIRE -3616 912 -3984 912
WIRE 1584 912 1584 864
WIRE -3616 928 -3616 912
WIRE -3984 944 -3984 912
WIRE 128 944 128 736
WIRE -4096 960 -4096 768
WIRE -4032 960 -4096 960
WIRE 1232 976 1232 944
WIRE 1840 992 1840 960
WIRE -4064 1008 -4064 816
WIRE -4032 1008 -4064 1008
WIRE -2400 1008 -2400 656
WIRE -2320 1008 -2320 720
WIRE -4064 1024 -4064 1008
WIRE -3616 1024 -3616 1008
WIRE 480 1024 480 912
WIRE 480 1024 416 1024
WIRE -3984 1040 -3984 1024
WIRE -3008 1040 -3008 1024
WIRE 64 1040 64 944
WIRE 128 1040 128 1024
WIRE 128 1040 64 1040
WIRE 240 1040 128 1040
WIRE 352 1040 240 1040
WIRE 448 1056 416 1056
WIRE 480 1072 480 1024
WIRE 240 1120 240 1040
WIRE 448 1120 448 1056
WIRE 448 1120 240 1120
WIRE -3008 1136 -3008 1120
WIRE -2400 1136 -2400 1088
WIRE -2352 1136 -2400 1136
WIRE -2320 1136 -2320 1088
WIRE -2320 1136 -2352 1136
WIRE -3008 1264 -3008 1216
WIRE -2464 1312 -2496 1312
WIRE -2352 1312 -2352 1136
WIRE -2352 1312 -2400 1312
WIRE -2352 1392 -2352 1312
WIRE -2352 1392 -2384 1392
WIRE -3008 1408 -3008 1344
WIRE -2640 1408 -3008 1408
WIRE -2608 1408 -2640 1408
WIRE -2496 1408 -2496 1312
WIRE -2496 1408 -2528 1408
WIRE -2448 1408 -2496 1408
WIRE -2304 1424 -2384 1424
WIRE -2416 1456 -2416 1440
FLAG -2304 1424 Vref
FLAG -2640 1408 Vrld
FLAG -2416 1376 Vcc
FLAG -2416 1456 0
FLAG -2848 -240 0
FLAG -2848 304 0
FLAG -2544 144 Vcc
FLAG -2672 240 0
FLAG -2992 -64 0
FLAG -1984 144 Vref
FLAG -2112 192 0
FLAG -2112 112 Vcc
FLAG -2336 48 Vcc
FLAG -2336 272 0
FLAG -2384 272 0
FLAG -4192 880 0
FLAG -4064 1024 0
FLAG -640 816 Vref
FLAG -528 688 0
FLAG -528 752 Vcc
FLAG -1248 800 Vref
FLAG -1136 672 0
FLAG -1136 736 Vcc
FLAG -320 720 VFts
FLAG 384 768 0
FLAG 384 688 Vcc
FLAG 544 720 Vnotch
FLAG 480 1152 Vref
FLAG 384 1072 Vcc
FLAG 384 1008 0
FLAG -3008 1024 VCM
FLAG -3984 848 VCM
FLAG -3984 1040 VCM
FLAG -2464 576 0
FLAG -2736 544 Vcc
FLAG -2464 848 0
FLAG -2736 816 Vcc
FLAG -992 912 Vref
FLAG -384 928 Vref
FLAG -2864 864 0
FLAG -2816 864 0
FLAG -2848 528 0
FLAG -2896 528 0
FLAG -3824 832 0
FLAG -3616 1024 0
FLAG -2592 240 0
FLAG -3280 832 0
FLAG -3216 544 0
FLAG -2096 800 0
FLAG -1984 544 0
FLAG -2016 544 0
FLAG -2096 512 Vcc
FLAG -2048 816 Vcc
FLAG -1920 688 VINA
FLAG -2192 656 Vinp
FLAG -2176 720 Vinn
FLAG -2240 560 0
FLAG -2048 544 0
FLAG -2000 880 Vref
FLAG 1584 912 Vref
FLAG 1696 720 0
FLAG 1696 784 Vcc
FLAG 1904 752 Vekg
FLAG 1840 992 Vref
FLAG 976 832 Vref
FLAG 1088 704 0
FLAG 1088 768 Vcc
FLAG 1232 976 Vref
SYMBOL res -2336 992 R0
SYMATTR InstName R1
SYMATTR Value 10Meg
SYMBOL res -2416 992 R0
WINDOW 0 -39 52 Left 2
WINDOW 3 -70 81 Left 2
SYMATTR InstName R2
SYMATTR Value 10Meg
SYMBOL OpAmps\\opamp2 -2416 1344 M0
WINDOW 3 -42 144 Left 2
SYMATTR Value ad8534
SYMATTR InstName U1
SYMBOL cap -2400 1296 R90
WINDOW 0 0 32 VBottom 2
WINDOW 3 -13 69 VTop 2
SYMATTR InstName C1
SYMATTR Value 1n
SYMBOL res -2512 1392 R90
WINDOW 0 0 56 VBottom 2
WINDOW 3 32 56 VTop 2
SYMATTR InstName R3
SYMATTR Value 1Meg
SYMBOL res -2944 640 R90
WINDOW 0 0 56 VBottom 2
WINDOW 3 32 56 VTop 2
SYMATTR InstName R4
SYMATTR Value 20k
SYMBOL res -3008 704 R90
WINDOW 0 16 102 VBottom 2
WINDOW 3 32 56 VTop 2
SYMATTR InstName R5
SYMATTR Value 20k
SYMBOL PowerProducts\\ADP151-3.3 -2848 144 R0
SYMATTR InstName U2
SYMBOL voltage -2848 -112 R180
WINDOW 0 24 96 Left 2
WINDOW 3 24 16 Left 2
SYMATTR InstName Vusb1
SYMATTR Value 5
SYMBOL cap -2688 160 R0
SYMATTR InstName C3
SYMATTR Value 1µ
SYMATTR SpiceLine Rser=0.5
SYMBOL cap -2976 -64 R270
WINDOW 0 32 32 VTop 2
WINDOW 3 0 32 VBottom 2
SYMATTR InstName C4
SYMATTR Value 1µ
SYMBOL OpAmps\\opamp2 -2112 80 R0
SYMATTR InstName U3
SYMATTR Value ad8534
SYMBOL res -2352 48 R0
SYMATTR InstName R6
SYMATTR Value 100k
SYMBOL res -2352 160 R0
WINDOW 3 36 59 Left 2
SYMATTR Value 100k
SYMATTR InstName R7
SYMBOL cap -2368 240 R180
WINDOW 0 24 56 Left 2
WINDOW 3 20 15 Left 2
SYMATTR InstName C5
SYMATTR Value 1µ
SYMBOL e -3984 736 R0
WINDOW 3 26 81 Left 2
SYMATTR Value 0.5
SYMATTR InstName E1
SYMBOL e -3984 928 R0
WINDOW 3 14 92 Left 2
SYMATTR Value -0.5
SYMATTR InstName E2
SYMBOL voltage -4192 768 R0
WINDOW 3 -863 149 Left 2
WINDOW 123 0 0 Left 0
WINDOW 39 0 0 Left 0
SYMATTR Value PWL file=\\wsl.localhost\Ubuntu\home\andrei\Licenta\AchizitionareSemnal\ekg_signal2.txt
SYMATTR InstName V1
SYMBOL voltage -3008 1120 R0
WINDOW 0 24 29 Left 2
SYMATTR InstName V2
SYMATTR Value SINE(0 1 50)
SYMBOL voltage -3008 1248 R0
WINDOW 0 27 34 Left 2
WINDOW 3 27 76 Left 2
WINDOW 123 0 0 Left 0
WINDOW 39 0 0 Left 0
SYMATTR InstName V3
SYMATTR Value SINE(0 100m 0.2)
SYMBOL bv -3008 1024 R0
SYMATTR InstName B1
SYMATTR Value V = white(time*1000)*200u
SYMBOL OpAmps\\opamp2 -528 784 M180
SYMATTR InstName U4
SYMATTR Value ad8534
SYMBOL OpAmps\\opamp2 -1136 768 M180
SYMATTR InstName U5
SYMATTR Value ad8534
SYMBOL cap -1424 672 R90
WINDOW 0 0 32 VBottom 2
WINDOW 3 32 32 VTop 2
SYMATTR InstName C6
SYMATTR Value 10µ
SYMBOL cap -1296 672 R90
WINDOW 0 0 32 VBottom 2
WINDOW 3 32 32 VTop 2
SYMATTR InstName C7
SYMATTR Value 10µ
SYMBOL res -1264 688 R0
WINDOW 0 -43 68 Left 2
WINDOW 3 -63 92 Left 2
SYMATTR InstName R8
SYMATTR Value 41.1k
SYMBOL res -1120 480 R90
WINDOW 0 0 56 VBottom 2
WINDOW 3 32 56 VTop 2
SYMATTR InstName R9
SYMATTR Value 63.5k
SYMBOL cap -816 688 R90
WINDOW 0 0 32 VBottom 2
WINDOW 3 32 32 VTop 2
SYMATTR InstName C8
SYMATTR Value 10µ
SYMBOL cap -672 688 R90
WINDOW 0 0 32 VBottom 2
WINDOW 3 32 32 VTop 2
SYMATTR InstName C9
SYMATTR Value 10µ
SYMBOL res -512 496 R90
WINDOW 0 0 56 VBottom 2
WINDOW 3 32 56 VTop 2
SYMATTR InstName R10
SYMATTR Value 81.2k
SYMBOL res -656 704 R0
WINDOW 0 -47 75 Left 2
WINDOW 3 -57 96 Left 2
SYMATTR InstName R11
SYMATTR Value 25.6k
SYMBOL OpAmps\\opamp2 384 656 R0
SYMATTR InstName U6
SYMATTR Value ad8534
SYMBOL res 464 816 R0
SYMATTR InstName R12
SYMATTR Value 1k
SYMBOL res 464 1056 R0
SYMATTR InstName R13
SYMATTR Value 10k
SYMBOL cap 224 720 R90
WINDOW 0 0 32 VBottom 2
WINDOW 3 32 32 VTop 2
SYMATTR InstName C10
SYMATTR Value 100n
SYMBOL cap 32 720 R90
WINDOW 0 0 32 VBottom 2
WINDOW 3 32 32 VTop 2
SYMATTR InstName C11
SYMATTR Value 100n
SYMBOL res 256 816 R90
WINDOW 0 0 56 VBottom 2
WINDOW 3 32 56 VTop 2
SYMATTR InstName R14
SYMATTR Value 31.8k
SYMBOL res 64 816 R90
WINDOW 0 0 56 VBottom 2
WINDOW 3 32 56 VTop 2
SYMATTR InstName R15
SYMATTR Value 31.8k
SYMBOL cap 48 880 R0
WINDOW 0 -51 34 Left 2
WINDOW 3 -52 54 Left 2
SYMATTR InstName C12
SYMATTR Value 200n
SYMBOL res 112 928 R0
SYMATTR InstName R16
SYMATTR Value 15.9k
SYMBOL OpAmps\\opamp2 384 1104 R180
SYMATTR InstName U7
SYMATTR Value ad8534
SYMBOL Contrib\\Toshiba\\diode\\BAV99 -2640 544 R90
WINDOW 0 0 32 VBottom 2
WINDOW 3 32 32 VTop 2
SYMATTR InstName U10
SYMBOL Contrib\\Toshiba\\diode\\BAV99 -2496 544 R90
WINDOW 0 0 32 VBottom 2
WINDOW 3 32 32 VTop 2
SYMATTR InstName U11
SYMBOL Contrib\\Toshiba\\diode\\BAV99 -2640 816 R90
WINDOW 0 0 32 VBottom 2
WINDOW 3 32 32 VTop 2
SYMATTR InstName U12
SYMBOL Contrib\\Toshiba\\diode\\BAV99 -2496 816 R90
WINDOW 0 0 32 VBottom 2
WINDOW 3 32 32 VTop 2
SYMATTR InstName U13
SYMBOL res -1008 704 R0
SYMATTR InstName R26
SYMATTR Value 6.06k
SYMBOL res -1008 816 R0
SYMATTR InstName R27
SYMATTR Value 3.92k
SYMBOL res -400 720 R0
SYMATTR InstName R28
SYMATTR Value 7.29k
SYMBOL res -400 832 R0
SYMATTR InstName R29
SYMATTR Value 2.49k
SYMBOL sw -2864 864 R180
WINDOW 0 21 18 Left 2
SYMATTR InstName LampaNeon1
SYMBOL sw -2848 528 R0
SYMATTR InstName S1
SYMBOL voltage -3824 736 R0
WINDOW 0 30 31 Left 2
WINDOW 3 -88 7 Left 2
WINDOW 123 0 0 Left 0
WINDOW 39 36 72 Left 2
SYMATTR InstName V4
SYMATTR Value PULSE(0 5000 1 1u 1u 5m 10)
SYMATTR SpiceLine Rser=0.001
SYMBOL voltage -3616 912 R0
WINDOW 3 -156 180 Left 2
WINDOW 123 0 0 Left 0
WINDOW 39 -156 206 Left 2
SYMATTR Value PULSE(0 5000 1 1u 1u 5m 10)
SYMATTR SpiceLine Rser=0.001
SYMATTR InstName V5
SYMBOL zener -2576 224 R180
WINDOW 0 24 64 Left 2
WINDOW 3 -71 -50 Left 2
SYMATTR InstName D1
SYMATTR Value DI_BZX84C3V3
SYMATTR Prefix X
SYMBOL res -2640 640 R90
WINDOW 0 0 56 VBottom 2
WINDOW 3 32 56 VTop 2
SYMATTR InstName R30
SYMATTR Value 10k
SYMBOL res -2640 704 R90
WINDOW 0 0 100 VBottom 2
WINDOW 3 32 56 VTop 2
SYMATTR InstName R31
SYMATTR Value 10k
SYMBOL voltage -3392 720 R90
WINDOW 0 -32 56 VBottom 2
WINDOW 3 32 56 VTop 2
SYMATTR InstName Electrod_R1
SYMATTR Value 400m
SYMBOL voltage -3520 656 R90
WINDOW 0 -32 56 VBottom 2
WINDOW 3 32 56 VTop 2
SYMATTR InstName Electrod_L1
SYMATTR Value 100m
SYMBOL voltage -3280 736 R0
WINDOW 0 27 34 Left 2
WINDOW 3 -44 131 Left 2
WINDOW 123 0 0 Left 0
WINDOW 39 -44 157 Left 2
SYMATTR InstName V6
SYMATTR Value SINE(0 1m 0.2)
SYMATTR SpiceLine Rser=0.1
SYMBOL voltage -3216 640 R180
WINDOW 0 24 96 Left 2
WINDOW 3 38 58 Left 2
WINDOW 123 0 0 Left 0
WINDOW 39 38 32 Left 2
SYMATTR InstName V7
SYMATTR Value SINE(0 1m 50)
SYMATTR SpiceLine Rser=0.1
SYMBOL OpAmps\\MAX41400 -2096 688 R0
WINDOW 3 141 -89 Left 2
SYMATTR InstName U15
SYMBOL cap -2128 528 R90
WINDOW 0 0 32 VBottom 2
WINDOW 3 31 44 VTop 2
SYMATTR InstName C17
SYMATTR Value 100n
SYMBOL res 1424 720 R90
WINDOW 0 0 56 VBottom 2
WINDOW 3 32 56 VTop 2
SYMATTR InstName R17
SYMATTR Value 8.59k
SYMBOL res 1568 720 R90
WINDOW 0 0 56 VBottom 2
WINDOW 3 37 52 VTop 2
SYMATTR InstName R18
SYMATTR Value 277k
SYMBOL cap 1696 528 R90
WINDOW 0 0 32 VBottom 2
WINDOW 3 32 32 VTop 2
SYMATTR InstName C2
SYMATTR Value 110n
SYMBOL OpAmps\\opamp2 1696 816 M180
WINDOW 3 24 87 Left 2
SYMATTR Value ad8534
SYMATTR InstName U8
SYMBOL cap 1568 800 R0
WINDOW 0 -30 46 Left 2
WINDOW 3 -32 67 Left 2
SYMATTR InstName C13
SYMATTR Value 4.3n
SYMBOL res 1824 752 R0
SYMATTR InstName R19
SYMATTR Value 2.99k
SYMBOL res 1824 864 R0
SYMATTR InstName R20
SYMATTR Value 6.81k
SYMBOL res 816 704 R90
WINDOW 0 0 56 VBottom 2
WINDOW 3 32 56 VTop 2
SYMATTR InstName R21
SYMATTR Value 3.94k
SYMBOL res 960 704 R90
WINDOW 0 0 56 VBottom 2
WINDOW 3 29 57 VTop 2
SYMATTR InstName R22
SYMATTR Value 23.6k
SYMBOL cap 1088 512 R90
WINDOW 0 0 32 VBottom 2
WINDOW 3 32 32 VTop 2
SYMATTR InstName C14
SYMATTR Value 110n
SYMBOL OpAmps\\opamp2 1088 800 M180
WINDOW 3 22 82 Left 2
SYMATTR Value ad8534
SYMATTR InstName U9
SYMBOL cap 960 736 R0
WINDOW 0 -23 44 Left 2
WINDOW 3 -41 67 Left 2
SYMATTR InstName C15
SYMATTR Value 110n
SYMBOL res 1216 736 R0
SYMATTR InstName R23
SYMATTR Value 7.1k
SYMBOL res 1216 848 R0
SYMATTR InstName R24
SYMATTR Value 2.87k
TEXT -1824 240 Left 2 !.lib ad8534.cir
TEXT -1824 264 Left 2 !.tran 0 40 30 uic
TEXT -1824 288 Left 2 !.model SW SW(Vt=90 Vh=-5 Ron=0.1 Roff=1G)
TEXT -1824 216 Left 2 !.inc BZX84C3V3.spice.txt
