Version 4.1
SHEET 1 2096 1600
WIRE -2848 -208 -2848 -240
WIRE -2976 -80 -2992 -80
WIRE -2848 -80 -2848 -128
WIRE -2848 -80 -2912 -80
WIRE -2992 -64 -2992 -80
WIRE -2848 -32 -2848 -80
WIRE -2848 -32 -3008 -32
WIRE -2848 16 -2848 -32
WIRE -2016 48 -2192 48
WIRE -2336 64 -2336 48
WIRE -2192 128 -2192 48
WIRE -2144 128 -2192 128
WIRE -3008 144 -3008 -32
WIRE -2976 144 -3008 144
WIRE -2672 144 -2720 144
WIRE -2592 144 -2672 144
WIRE -2544 144 -2592 144
WIRE -2016 144 -2016 48
WIRE -2016 144 -2080 144
WIRE -1984 144 -2016 144
WIRE -2672 160 -2672 144
WIRE -2592 160 -2592 144
WIRE -2336 160 -2336 144
WIRE -2336 160 -2384 160
WIRE -2144 160 -2336 160
WIRE -2384 176 -2384 160
WIRE -2336 176 -2336 160
WIRE -2112 192 -2112 176
WIRE -2672 240 -2672 224
WIRE -2592 240 -2592 224
WIRE -2384 272 -2384 240
WIRE -2336 272 -2336 256
WIRE -2848 304 -2848 272
WIRE -1088 512 -1264 512
WIRE -864 512 -1008 512
WIRE 224 512 32 512
WIRE 432 512 288 512
WIRE -2048 528 -2064 528
WIRE -2016 528 -2032 528
WIRE -1984 528 -2000 528
WIRE 832 528 640 528
WIRE 1040 528 896 528
WIRE -2848 544 -2848 528
WIRE -2192 544 -2240 544
WIRE -2096 544 -2096 512
WIRE -2096 544 -2128 544
WIRE -2048 544 -2048 528
WIRE -2016 544 -2016 528
WIRE -1984 544 -1984 528
WIRE -192 544 -384 544
WIRE -3728 560 -3776 560
WIRE -3584 560 -3664 560
WIRE -2896 560 -2896 528
WIRE -2736 560 -2736 544
WIRE -2704 560 -2736 560
WIRE -2608 560 -2640 560
WIRE -2560 560 -2608 560
WIRE -2464 560 -2496 560
WIRE -2240 560 -2240 544
WIRE -2464 576 -2464 560
WIRE -2096 592 -2096 544
WIRE -2064 592 -2064 528
WIRE -2032 592 -2032 528
WIRE -2000 592 -2000 528
WIRE -3776 656 -3776 560
WIRE -3776 656 -3968 656
WIRE -3728 656 -3776 656
WIRE -3584 656 -3584 560
WIRE -3584 656 -3648 656
WIRE -3040 656 -3584 656
WIRE -2896 656 -2896 608
WIRE -2896 656 -2960 656
WIRE -2848 656 -2848 624
WIRE -2848 656 -2896 656
WIRE -2736 656 -2848 656
WIRE -2608 656 -2608 560
WIRE -2608 656 -2656 656
WIRE -2400 656 -2608 656
WIRE -2192 656 -2400 656
WIRE -2128 656 -2192 656
WIRE -1920 688 -1968 688
WIRE -1840 688 -1920 688
WIRE -1728 688 -1776 688
WIRE -1648 688 -1728 688
WIRE -384 688 -384 544
WIRE -320 688 -384 688
WIRE -1728 704 -1728 688
WIRE -1472 704 -1584 704
WIRE -1360 704 -1472 704
WIRE -1264 704 -1264 512
WIRE -1264 704 -1296 704
WIRE -1216 704 -1264 704
WIRE -1120 704 -1152 704
WIRE -1040 704 -1120 704
WIRE -192 704 -192 544
WIRE -192 704 -256 704
WIRE -128 704 -192 704
WIRE -80 704 -128 704
WIRE 32 704 32 512
WIRE 32 704 0 704
WIRE 64 704 32 704
WIRE 176 704 144 704
WIRE 256 704 176 704
WIRE -3456 720 -3600 720
WIRE -3392 720 -3456 720
WIRE -3264 720 -3312 720
WIRE -3104 720 -3264 720
WIRE -2864 720 -3024 720
WIRE -2816 720 -2864 720
WIRE -2736 720 -2816 720
WIRE -2608 720 -2656 720
WIRE -2320 720 -2608 720
WIRE -2176 720 -2320 720
WIRE -2128 720 -2176 720
WIRE -1648 720 -1680 720
WIRE -1472 720 -1472 704
WIRE -1120 720 -1120 704
WIRE -864 720 -864 512
WIRE -864 720 -976 720
WIRE -800 720 -864 720
WIRE -752 720 -800 720
WIRE -704 720 -752 720
WIRE -544 720 -640 720
WIRE -512 720 -544 720
WIRE -416 720 -448 720
WIRE -320 720 -416 720
WIRE 176 720 176 704
WIRE 432 720 432 512
WIRE 432 720 320 720
WIRE 528 720 432 720
WIRE 640 720 640 528
WIRE 640 720 608 720
WIRE 672 720 640 720
WIRE 784 720 752 720
WIRE 864 720 784 720
WIRE -1040 736 -1072 736
WIRE 256 736 224 736
WIRE 432 736 432 720
WIRE 1040 736 1040 528
WIRE 1040 736 928 736
WIRE 1104 736 1040 736
WIRE -3968 752 -3968 656
WIRE -288 752 -288 736
WIRE 864 752 832 752
WIRE 1040 752 1040 736
WIRE -4080 768 -4176 768
WIRE -4016 768 -4080 768
WIRE -2864 768 -2864 720
WIRE -4176 784 -4176 768
WIRE -2816 784 -2816 720
WIRE 784 784 784 720
WIRE -2096 800 -2096 784
WIRE -1728 800 -1728 784
WIRE -4016 816 -4048 816
WIRE -3456 816 -3456 720
WIRE -3376 816 -3456 816
WIRE -3264 816 -3264 720
WIRE -3264 816 -3312 816
WIRE -2048 816 -2048 784
WIRE -2000 816 -2000 784
WIRE -1680 816 -1680 720
WIRE -1472 816 -1472 800
WIRE -1472 816 -1680 816
WIRE -1120 816 -1120 800
WIRE -752 816 -752 720
WIRE -704 816 -752 816
WIRE -608 816 -624 816
WIRE -512 816 -608 816
WIRE -416 816 -416 720
WIRE -416 816 -432 816
WIRE -192 816 -192 704
WIRE 176 816 176 784
WIRE -2736 832 -2736 816
WIRE -2704 832 -2736 832
WIRE -2608 832 -2608 720
WIRE -2608 832 -2640 832
WIRE -2560 832 -2608 832
WIRE -2464 832 -2496 832
WIRE -1472 832 -1472 816
WIRE -1072 832 -1072 736
WIRE -864 832 -864 720
WIRE -864 832 -1072 832
WIRE 224 832 224 736
WIRE 432 832 432 816
WIRE 432 832 224 832
WIRE -3968 848 -3968 832
WIRE -2464 848 -2464 832
WIRE 432 848 432 832
WIRE 832 848 832 752
WIRE 1040 848 1040 832
WIRE 1040 848 832 848
WIRE -2864 864 -2864 848
WIRE -2816 864 -2816 832
WIRE -608 864 -608 816
WIRE 1040 864 1040 848
WIRE -4176 880 -4176 864
WIRE 784 896 784 848
WIRE -3600 912 -3600 720
WIRE -3600 912 -3968 912
WIRE -544 928 -544 720
WIRE -3968 944 -3968 912
WIRE -4080 960 -4080 768
WIRE -4016 960 -4080 960
WIRE 432 960 432 928
WIRE 1040 976 1040 944
WIRE -4048 1008 -4048 816
WIRE -4016 1008 -4048 1008
WIRE -2400 1008 -2400 656
WIRE -2320 1008 -2320 720
WIRE -192 1008 -192 896
WIRE -192 1008 -256 1008
WIRE -4048 1024 -4048 1008
WIRE -608 1024 -608 928
WIRE -544 1024 -544 1008
WIRE -544 1024 -608 1024
WIRE -432 1024 -544 1024
WIRE -320 1024 -432 1024
WIRE -3968 1040 -3968 1024
WIRE -3008 1040 -3008 1024
WIRE -224 1040 -256 1040
WIRE -192 1056 -192 1008
WIRE -432 1104 -432 1024
WIRE -224 1104 -224 1040
WIRE -224 1104 -432 1104
WIRE -3008 1136 -3008 1120
WIRE -2400 1136 -2400 1088
WIRE -2352 1136 -2400 1136
WIRE -2320 1136 -2320 1088
WIRE -2320 1136 -2352 1136
WIRE -2464 1232 -2496 1232
WIRE -2352 1232 -2352 1136
WIRE -2352 1232 -2384 1232
WIRE -3008 1264 -3008 1216
WIRE -2496 1312 -2496 1232
WIRE -2464 1312 -2496 1312
WIRE -2352 1312 -2352 1232
WIRE -2352 1312 -2400 1312
WIRE -2352 1392 -2352 1312
WIRE -2352 1392 -2384 1392
WIRE -3008 1408 -3008 1344
WIRE -2640 1408 -3008 1408
WIRE -2608 1408 -2640 1408
WIRE -2496 1408 -2496 1312
WIRE -2496 1408 -2528 1408
WIRE -2448 1408 -2496 1408
WIRE -2304 1424 -2384 1424
WIRE -2416 1456 -2416 1440
FLAG -2304 1424 Vref
FLAG -2640 1408 Vrld
FLAG -2416 1376 Vcc
FLAG -2416 1456 0
FLAG -2848 -240 0
FLAG -2848 304 0
FLAG -2544 144 Vcc
FLAG -2672 240 0
FLAG -2992 -64 0
FLAG -1984 144 Vref
FLAG -2112 192 0
FLAG -2112 112 Vcc
FLAG -2336 48 Vcc
FLAG -2336 272 0
FLAG -2384 272 0
FLAG -4176 880 0
FLAG -4048 1024 0
FLAG -288 752 0
FLAG -288 672 Vcc
FLAG -128 704 Vnotch
FLAG -192 1136 Vref
FLAG -288 1056 Vcc
FLAG -288 992 0
FLAG -3008 1024 VCM
FLAG -3968 848 VCM
FLAG -3968 1040 VCM
FLAG -2464 576 0
FLAG -2736 544 Vcc
FLAG -2464 848 0
FLAG -2736 816 Vcc
FLAG -2864 864 0
FLAG -2816 864 0
FLAG -2848 528 0
FLAG -2896 528 0
FLAG -2592 240 0
FLAG -2096 800 0
FLAG -1984 544 0
FLAG -2016 544 0
FLAG -2096 512 Vcc
FLAG -2048 816 Vcc
FLAG -1920 688 VINA
FLAG -2192 656 Vinp
FLAG -2176 720 Vinn
FLAG -2240 560 0
FLAG -2048 544 0
FLAG -2000 816 Vref
FLAG 784 896 Vref
FLAG 896 704 0
FLAG 896 768 Vcc
FLAG 1104 736 Vekg
FLAG 1040 976 Vref
FLAG 176 816 Vref
FLAG 288 688 0
FLAG 288 752 Vcc
FLAG 432 960 Vref
FLAG -1120 816 Vref
FLAG -1008 688 0
FLAG -1008 752 Vcc
FLAG -1728 800 Vref
FLAG -1616 672 0
FLAG -1616 736 Vcc
FLAG -800 720 VFts
FLAG -1472 912 Vref
SYMBOL res -2336 992 R0
SYMATTR InstName R1
SYMATTR Value {wc(10Meg, 0.01, run)}
SYMBOL res -2416 992 R0
WINDOW 0 -39 52 Left 2
WINDOW 3 -217 75 Left 2
SYMATTR InstName R2
SYMATTR Value {wc(10Meg, 0.01, run)}
SYMBOL OpAmps\\opamp2 -2416 1344 M0
WINDOW 3 -42 144 Left 2
SYMATTR Value ad8534
SYMATTR InstName U1
SYMBOL cap -2400 1296 R90
WINDOW 0 0 32 VBottom 2
WINDOW 3 -13 69 VTop 2
SYMATTR InstName C1
SYMATTR Value {wc(1n, 0.01, run)}
SYMBOL res -2512 1392 R90
WINDOW 0 0 56 VBottom 2
WINDOW 3 32 56 VTop 2
SYMATTR InstName R3
SYMATTR Value {wc(1Meg, 0.01, run)}
SYMBOL res -2944 640 R90
WINDOW 0 0 56 VBottom 2
WINDOW 3 32 56 VTop 2
SYMATTR InstName R4
SYMATTR Value {wc(20k, 0.001, run)}
SYMBOL res -3008 704 R90
WINDOW 0 16 102 VBottom 2
WINDOW 3 32 56 VTop 2
SYMATTR InstName R5
SYMATTR Value {wc(20k, 0.001, run)}
SYMBOL PowerProducts\\ADP151-3.3 -2848 144 R0
SYMATTR InstName U2
SYMBOL voltage -2848 -112 R180
WINDOW 0 24 96 Left 2
WINDOW 3 24 16 Left 2
SYMATTR InstName Vusb1
SYMATTR Value 5
SYMBOL cap -2688 160 R0
SYMATTR InstName C3
SYMATTR Value 1µ
SYMATTR SpiceLine Rser=0.5
SYMBOL cap -2976 -64 R270
WINDOW 0 32 32 VTop 2
WINDOW 3 0 32 VBottom 2
SYMATTR InstName C4
SYMATTR Value 1µ
SYMBOL OpAmps\\opamp2 -2112 80 R0
SYMATTR InstName U3
SYMATTR Value ad8534
SYMBOL res -2352 48 R0
SYMATTR InstName R6
SYMATTR Value 100k
SYMBOL res -2352 160 R0
WINDOW 3 36 59 Left 2
SYMATTR Value 100k
SYMATTR InstName R7
SYMBOL cap -2368 240 R180
WINDOW 0 24 56 Left 2
WINDOW 3 20 15 Left 2
SYMATTR InstName C5
SYMATTR Value 1µ
SYMBOL e -3968 736 R0
WINDOW 3 26 81 Left 2
SYMATTR Value 0.5
SYMATTR InstName E1
SYMBOL e -3968 928 R0
WINDOW 3 14 92 Left 2
SYMATTR Value -0.5
SYMATTR InstName E2
SYMBOL voltage -4176 768 R0
WINDOW 3 -863 149 Left 2
WINDOW 123 24 42 Left 2
WINDOW 39 0 0 Left 0
SYMATTR Value PWL file=C:\Users\botaa\Documents\Licenta\Licenta\AchizitionareSemnal\ekg_signal2.txt
SYMATTR InstName V1
SYMBOL voltage -3008 1120 R0
WINDOW 0 24 29 Left 2
SYMATTR InstName V2
SYMATTR Value SINE(0 100m 50)
SYMBOL voltage -3008 1248 R0
WINDOW 0 27 34 Left 2
WINDOW 3 27 76 Left 2
WINDOW 123 0 0 Left 0
WINDOW 39 0 0 Left 0
SYMATTR InstName V3
SYMATTR Value SINE(0 100m 0.01)
SYMBOL OpAmps\\opamp2 -288 640 R0
SYMATTR InstName U6
SYMATTR Value ad8534
SYMBOL res -208 800 R0
SYMATTR InstName R12
SYMATTR Value {wc(10k, 0.01, run)}
SYMBOL res -208 1040 R0
SYMATTR InstName R13
SYMATTR Value {wc(10k, 0.01, run)}
SYMBOL cap -448 704 R90
WINDOW 0 0 32 VBottom 2
WINDOW 3 32 32 VTop 2
SYMATTR InstName C10
SYMATTR Value {wc(100n, 0.01, run)}
SYMBOL cap -640 704 R90
WINDOW 0 0 32 VBottom 2
WINDOW 3 32 32 VTop 2
SYMATTR InstName C11
SYMATTR Value {wc(100n, 0.01, run)}
SYMBOL res -416 800 R90
WINDOW 0 0 56 VBottom 2
WINDOW 3 31 10 VTop 2
SYMATTR InstName R14
SYMATTR Value {wc(31.8k, 0.001, run)}
SYMBOL res -608 800 R90
WINDOW 0 0 56 VBottom 2
WINDOW 3 28 101 VTop 2
SYMATTR InstName R15
SYMATTR Value {wc(31.8k, 0.001, run)}
SYMBOL cap -624 864 R0
WINDOW 0 -51 34 Left 2
WINDOW 3 -52 54 Left 2
SYMATTR InstName C12
SYMATTR Value {wc(200n, 0.01, run)}
SYMBOL res -560 912 R0
WINDOW 3 -121 90 Left 2
SYMATTR InstName R16
SYMATTR Value {wc(15.9k, 0.001, run)}
SYMBOL OpAmps\\opamp2 -288 1088 R180
SYMATTR InstName U7
SYMATTR Value ad8534
SYMBOL sw -2864 864 R180
WINDOW 0 21 18 Left 2
SYMATTR InstName LampaNeon1
SYMBOL sw -2848 528 R0
SYMATTR InstName S1
SYMBOL zener -2576 224 R180
WINDOW 0 24 64 Left 2
WINDOW 3 -71 -50 Left 2
SYMATTR InstName D1
SYMATTR Value DI_BZX84C3V3
SYMATTR Prefix X
SYMBOL res -2640 640 R90
WINDOW 0 0 56 VBottom 2
WINDOW 3 32 56 VTop 2
SYMATTR InstName R30
SYMATTR Value {wc(10k, 0.001, run)}
SYMBOL res -2640 704 R90
WINDOW 0 15 104 VBottom 2
WINDOW 3 32 56 VTop 2
SYMATTR InstName R31
SYMATTR Value {wc(10k, 0.001, run)}
SYMBOL OpAmps\\MAX41400 -2096 688 R0
WINDOW 3 141 -89 Left 2
SYMATTR InstName U15
SYMBOL cap -2128 528 R90
WINDOW 0 0 32 VBottom 2
WINDOW 3 31 44 VTop 2
SYMATTR InstName C17
SYMATTR Value 100n
SYMBOL res 624 704 R90
WINDOW 0 0 56 VBottom 2
WINDOW 3 32 56 VTop 2
SYMATTR InstName R17
SYMATTR Value {wc(8.59k, 0.01, run)}
SYMBOL res 768 704 R90
WINDOW 0 0 56 VBottom 2
WINDOW 3 -41 39 VTop 2
SYMATTR InstName R18
SYMATTR Value {wc(277k, 0.01, run)}
SYMBOL cap 896 512 R90
WINDOW 0 0 32 VBottom 2
WINDOW 3 32 32 VTop 2
SYMATTR InstName C2
SYMATTR Value {wc(110n, 0.01, run)}
SYMBOL OpAmps\\opamp2 896 800 M180
WINDOW 3 24 87 Left 2
SYMATTR Value ad8534
SYMATTR InstName U8
SYMBOL cap 768 784 R0
WINDOW 0 -30 46 Left 2
WINDOW 3 -32 67 Left 2
SYMATTR InstName C13
SYMATTR Value {wc(4.3n, 0.01, run)}
SYMBOL res 1024 736 R0
SYMATTR InstName R19
SYMATTR Value {wc(2.99k, 0.01, run)}
SYMBOL res 1024 848 R0
SYMATTR InstName R20
SYMATTR Value {wc(6.81k, 0.01, run)}
SYMBOL res 16 688 R90
WINDOW 0 0 56 VBottom 2
WINDOW 3 -46 62 VTop 2
SYMATTR InstName R21
SYMATTR Value {wc(3.94k, 0.01, run)}
SYMBOL res 160 688 R90
WINDOW 0 0 56 VBottom 2
WINDOW 3 29 57 VTop 2
SYMATTR InstName R22
SYMATTR Value {wc(23.6k, 0.01, run)}
SYMBOL cap 288 496 R90
WINDOW 0 0 32 VBottom 2
WINDOW 3 32 32 VTop 2
SYMATTR InstName C14
SYMATTR Value {wc(110n, 0.01, run)}
SYMBOL OpAmps\\opamp2 288 784 M180
WINDOW 3 22 82 Left 2
SYMATTR Value ad8534
SYMATTR InstName U9
SYMBOL cap 160 720 R0
WINDOW 0 -23 44 Left 2
WINDOW 3 -41 67 Left 2
SYMATTR InstName C15
SYMATTR Value {wc(110n, 0.01, run)}
SYMBOL res 416 720 R0
SYMATTR InstName R23
SYMATTR Value {wc(7.1k, 0.01, run)}
SYMBOL res 416 832 R0
SYMATTR InstName R24
SYMATTR Value {wc(2.87k, 0.01, run)}
SYMBOL zener -2496 544 R90
WINDOW 0 -4 32 VBottom 2
WINDOW 3 -68 -16 VTop 2
SYMATTR InstName D2
SYMATTR Value DI_BZX84C3V3
SYMATTR Prefix X
SYMBOL zener -2640 544 R90
WINDOW 0 -4 32 VBottom 2
WINDOW 3 -66 36 VTop 2
SYMATTR InstName D3
SYMATTR Value DI_BZX84C3V3
SYMATTR Prefix X
SYMBOL zener -2496 816 R90
WINDOW 0 -4 32 VBottom 2
WINDOW 3 36 32 VTop 2
SYMATTR InstName D4
SYMATTR Value DI_BZX84C3V3
SYMATTR Prefix X
SYMBOL zener -2640 816 R90
WINDOW 0 -4 32 VBottom 2
WINDOW 3 36 74 VTop 2
SYMATTR InstName D5
SYMATTR Value DI_BZX84C3V3
SYMATTR Prefix X
SYMBOL res -3632 640 R90
WINDOW 0 0 56 VBottom 2
WINDOW 3 32 56 VTop 2
SYMATTR InstName R25
SYMATTR Value 51k
SYMBOL cap -3664 544 R90
WINDOW 0 0 32 VBottom 2
WINDOW 3 32 32 VTop 2
SYMATTR InstName C16
SYMATTR Value 47n
SYMBOL res -3408 736 R270
WINDOW 0 32 56 VTop 2
WINDOW 3 0 56 VBottom 2
SYMATTR InstName R32
SYMATTR Value 100k
SYMBOL cap -3376 832 R270
WINDOW 0 32 32 VTop 2
WINDOW 3 0 32 VBottom 2
SYMATTR InstName C18
SYMATTR Value 47n
SYMBOL OpAmps\\opamp2 -1008 784 M180
SYMATTR InstName U4
SYMATTR Value ad8534
SYMBOL OpAmps\\opamp2 -1616 768 M180
SYMATTR InstName U5
SYMATTR Value ad8534
SYMBOL cap -1776 672 R90
WINDOW 0 0 32 VBottom 2
WINDOW 3 32 32 VTop 2
SYMATTR InstName C6
SYMATTR Value {wc(10u, 0.01, run)}
SYMBOL res -1744 688 R0
WINDOW 0 -43 68 Left 2
WINDOW 3 -63 92 Left 2
SYMATTR InstName R8
SYMATTR Value {wc(319k, 0.01, run)}
SYMBOL cap -1296 688 R90
WINDOW 0 0 32 VBottom 2
WINDOW 3 31 13 VTop 2
SYMATTR InstName C7
SYMATTR Value {wc(10u, 0.01, run)}
SYMBOL cap -1152 688 R90
WINDOW 0 0 32 VBottom 2
WINDOW 3 -50 6 VTop 2
SYMATTR InstName C8
SYMATTR Value {wc(10u, 0.01, run)}
SYMBOL res -992 496 R90
WINDOW 0 0 56 VBottom 2
WINDOW 3 32 56 VTop 2
SYMATTR InstName R9
SYMATTR Value {wc(159k, 0.01, run)}
SYMBOL res -1136 704 R0
WINDOW 0 -47 75 Left 2
WINDOW 3 -73 99 Left 2
SYMATTR InstName R10
SYMATTR Value {wc(637k, 0.01, run)}
SYMBOL res -1488 704 R0
SYMATTR InstName R11
SYMATTR Value {wc(9k, 0.01, run)}
SYMBOL res -1488 816 R0
SYMATTR InstName R26
SYMATTR Value {wc(1k, 0.01, run)}
SYMBOL res -2368 1216 R90
WINDOW 0 0 56 VBottom 2
WINDOW 3 32 56 VTop 2
SYMATTR InstName R27
SYMATTR Value {wc(10Meg, 0.01, run)}
SYMBOL voltage -3008 1024 R0
SYMATTR InstName EMG2
SYMATTR Value SINE(0 100m 200)
TEXT -1824 240 Left 2 !.lib ad8534.cir
TEXT -1824 264 Left 2 !.tran 0 40 30 uic
TEXT -1824 288 Left 2 !.model SW SW(Vt=90 Vh=-5 Ron=0.1 Roff=1G)
TEXT -1824 216 Left 2 !.inc BZX84C3V3.spice.txt
TEXT -1824 312 Left 2 !.func wc(nominal, tol, index) = nominal*(1 + tol*if(flat(0.5) > 0, 1, -1))
TEXT -1824 336 Left 2 !.step param run 1 5 1\n;.ac dec 100 0.1 1000
