Version 4.1
SHEET 1 880 680
SYMBOL res 112 112 R0
SYMATTR InstName R1
