Version 4.1
SHEET 1 880 680
WIRE -144 -288 -144 -304
WIRE 0 -288 0 -304
WIRE 352 16 160 16
WIRE 560 16 416 16
WIRE -432 192 -592 192
WIRE -304 192 -352 192
WIRE -176 192 -304 192
WIRE -48 208 -112 208
WIRE 48 208 -48 208
WIRE 160 208 160 16
WIRE 160 208 128 208
WIRE 192 208 160 208
WIRE 304 208 272 208
WIRE 384 208 304 208
WIRE -176 224 -208 224
WIRE -48 224 -48 208
WIRE 304 224 304 208
WIRE 560 224 560 16
WIRE 560 224 448 224
WIRE -592 240 -592 192
WIRE 384 240 352 240
WIRE -304 272 -304 256
WIRE -208 320 -208 224
WIRE -48 320 -48 304
WIRE -48 320 -208 320
WIRE 352 320 352 240
WIRE 560 320 560 304
WIRE 560 320 352 320
WIRE 560 336 560 320
WIRE -48 352 -48 320
FLAG -144 -288 0
FLAG -144 -384 Vcc
FLAG 0 -288 0
FLAG 0 -384 Vref
FLAG -592 320 Vref
FLAG -304 272 Vref
FLAG -48 432 Vref
FLAG 560 416 Vref
FLAG 304 288 Vref
FLAG 416 192 0
FLAG -144 176 0
FLAG -144 240 Vcc
FLAG 416 256 Vcc
SYMBOL voltage -144 -400 R0
SYMATTR InstName V1
SYMATTR Value 3.3
SYMBOL voltage 0 -400 R0
SYMATTR InstName V2
SYMATTR Value 1.65
SYMBOL OpAmps\\opamp2 -144 272 M180
SYMATTR InstName U1
SYMATTR Value ad8534
SYMBOL voltage -592 224 R0
WINDOW 123 24 124 Left 2
WINDOW 39 0 0 Left 0
SYMATTR InstName V3
SYMATTR Value ""
SYMATTR Value2 AC 1
SYMBOL res -336 176 R90
WINDOW 0 0 56 VBottom 2
WINDOW 3 32 56 VTop 2
SYMATTR InstName R1
SYMATTR Value 8.01k
SYMBOL cap -320 192 R0
SYMATTR InstName C1
SYMATTR Value 100n
SYMBOL res -64 208 R0
SYMATTR InstName R2
SYMATTR Value 9.68k
SYMBOL res -64 336 R0
SYMATTR InstName R3
SYMATTR Value 316
SYMBOL res 144 192 R90
WINDOW 0 0 56 VBottom 2
WINDOW 3 32 56 VTop 2
SYMATTR InstName R4
SYMATTR Value 3.62k
SYMBOL res 288 192 R90
WINDOW 0 0 56 VBottom 2
WINDOW 3 -20 6 VTop 2
SYMATTR InstName R5
SYMATTR Value 14.8k
SYMBOL cap 416 0 R90
WINDOW 0 0 32 VBottom 2
WINDOW 3 32 32 VTop 2
SYMATTR InstName C2
SYMATTR Value 100n
SYMBOL OpAmps\\opamp2 416 288 M180
SYMATTR InstName U2
SYMATTR Value ad8534
SYMBOL res 544 208 R0
SYMATTR InstName R6
SYMATTR Value 6.83k
SYMBOL res 544 320 R0
SYMATTR InstName R7
SYMATTR Value 3.16k
SYMBOL cap 288 224 R0
WINDOW 0 -30 46 Left 2
WINDOW 3 -59 62 Left 2
SYMATTR InstName C3
SYMATTR Value 100n
TEXT -96 -504 Left 2 !.ac dec 100 0.01 300
TEXT -88 -528 Left 2 !.lib ad8534.cir
