Version 4.1
SHEET 1 924 680
WIRE -80 -272 -80 -288
WIRE 64 -272 64 -288
WIRE 0 -64 -32 -64
WIRE 352 -64 80 -64
WIRE -144 128 -288 128
WIRE -32 128 -32 -64
WIRE -32 128 -80 128
WIRE 0 128 -32 128
WIRE 96 128 64 128
WIRE 176 128 96 128
WIRE 96 144 96 128
WIRE 352 144 352 -64
WIRE 352 144 240 144
WIRE 448 144 352 144
WIRE 560 144 512 144
WIRE 688 144 560 144
WIRE -288 160 -288 128
WIRE 176 160 160 160
WIRE 560 160 560 144
WIRE 816 160 752 160
WIRE 880 160 816 160
WIRE 896 160 880 160
WIRE 688 176 656 176
WIRE 96 240 96 224
WIRE -288 256 -288 240
WIRE 560 256 560 240
WIRE 160 304 160 160
WIRE 352 304 352 144
WIRE 352 304 160 304
WIRE 656 336 656 176
WIRE 816 336 816 160
WIRE 816 336 656 336
FLAG -80 -272 0
FLAG -80 -368 Vcc
FLAG 64 -272 0
FLAG 64 -368 Vref
FLAG 208 176 Vcc
FLAG 208 112 0
FLAG 720 128 0
FLAG 720 192 Vcc
FLAG 880 160 Vout
FLAG -288 256 Vref
FLAG 96 240 Vref
FLAG 560 256 Vref
SYMBOL OpAmps\\opamp2 208 208 M180
SYMATTR InstName U1
SYMATTR Value ad8534
SYMBOL voltage -80 -384 R0
SYMATTR InstName V1
SYMATTR Value 3.3
SYMBOL voltage 64 -384 R0
SYMATTR InstName V2
SYMATTR Value 1.65
SYMBOL voltage -288 144 R0
WINDOW 123 24 124 Left 2
WINDOW 39 0 0 Left 0
SYMATTR Value2 AC 1
SYMATTR InstName V3
SYMATTR Value ""
SYMBOL cap -80 112 R90
WINDOW 0 0 32 VBottom 2
WINDOW 3 32 32 VTop 2
SYMATTR InstName C1
SYMATTR Value 10”
SYMBOL cap 64 112 R90
WINDOW 0 0 32 VBottom 2
WINDOW 3 32 32 VTop 2
SYMATTR InstName C2
SYMATTR Value 10”
SYMBOL res 80 128 R0
SYMATTR InstName R1
SYMATTR Value 319k
SYMBOL res 96 -80 R90
WINDOW 0 0 56 VBottom 2
WINDOW 3 32 56 VTop 2
SYMATTR InstName R2
SYMATTR Value 167k
SYMBOL cap 512 128 R90
WINDOW 0 0 32 VBottom 2
WINDOW 3 32 32 VTop 2
SYMATTR InstName C3
SYMATTR Value 10”
SYMBOL res 544 144 R0
SYMATTR InstName R3
SYMATTR Value 211k
SYMBOL OpAmps\\opamp2 720 224 M180
SYMATTR InstName U2
SYMATTR Value ad8534
TEXT 152 40 Left 2 !.lib ad8534.cir
TEXT -104 -456 Left 2 !.ac dec 100 0.01 150
