Version 4.1
SHEET 1 1596 680
WIRE -80 -272 -80 -288
WIRE 64 -272 64 -288
WIRE -64 -144 -240 -144
WIRE 160 -144 16 -144
WIRE 544 -128 368 -128
WIRE 768 -128 624 -128
WIRE -336 48 -384 48
WIRE -240 48 -240 -144
WIRE -240 48 -272 48
WIRE -208 48 -240 48
WIRE -96 48 -144 48
WIRE -16 48 -96 48
WIRE -96 64 -96 48
WIRE 160 64 160 -144
WIRE 160 64 48 64
WIRE 272 64 160 64
WIRE 368 64 368 -128
WIRE 368 64 336 64
WIRE 416 64 368 64
WIRE 512 64 480 64
WIRE 592 64 512 64
WIRE -384 80 -384 48
WIRE -16 80 -48 80
WIRE 512 80 512 64
WIRE 768 80 768 -128
WIRE 768 80 656 80
WIRE 832 80 768 80
WIRE 592 96 560 96
WIRE 832 96 832 80
WIRE -96 160 -96 144
WIRE -48 176 -48 80
WIRE 160 176 160 64
WIRE 160 176 -48 176
WIRE 512 176 512 160
WIRE 560 192 560 96
WIRE 768 192 768 80
WIRE 768 192 560 192
FLAG -80 -272 0
FLAG -80 -368 Vcc
FLAG 64 -272 0
FLAG 64 -368 Vref
FLAG 512 176 Vref
FLAG 624 48 0
FLAG 624 112 Vcc
FLAG -96 160 Vref
FLAG 16 32 0
FLAG 16 96 Vcc
FLAG 832 80 VFts
FLAG -384 160 Vref
SYMBOL voltage -80 -384 R0
SYMATTR InstName V1
SYMATTR Value 3.3
SYMBOL voltage 64 -384 R0
SYMATTR InstName V2
SYMATTR Value 1.65
SYMBOL OpAmps\\opamp2 624 144 M180
SYMATTR InstName U2
SYMATTR Value ad8534
SYMBOL OpAmps\\opamp2 16 128 M180
SYMATTR InstName U3
SYMATTR Value ad8534
SYMBOL cap -272 32 R90
WINDOW 0 0 32 VBottom 2
WINDOW 3 32 32 VTop 2
SYMATTR InstName C2
SYMATTR Value 10”
SYMBOL cap -144 32 R90
WINDOW 0 0 32 VBottom 2
WINDOW 3 32 32 VTop 2
SYMATTR InstName C3
SYMATTR Value 10”
SYMBOL res -112 48 R0
WINDOW 0 -43 68 Left 2
WINDOW 3 -63 92 Left 2
SYMATTR InstName R2
SYMATTR Value 82.3k
SYMBOL res 32 -160 R90
WINDOW 0 0 56 VBottom 2
WINDOW 3 32 56 VTop 2
SYMATTR InstName R3
SYMATTR Value 31.7k
SYMBOL cap 336 48 R90
WINDOW 0 0 32 VBottom 2
WINDOW 3 32 32 VTop 2
SYMATTR InstName C4
SYMATTR Value 10”
SYMBOL cap 480 48 R90
WINDOW 0 0 32 VBottom 2
WINDOW 3 32 32 VTop 2
SYMATTR InstName C5
SYMATTR Value 10”
SYMBOL res 640 -144 R90
WINDOW 0 0 56 VBottom 2
WINDOW 3 32 56 VTop 2
SYMATTR InstName R4
SYMATTR Value 43.7k
SYMBOL res 496 64 R0
WINDOW 0 -47 75 Left 2
WINDOW 3 -57 96 Left 2
SYMATTR InstName R5
SYMATTR Value 47.6k
SYMBOL voltage -384 64 R0
WINDOW 123 24 124 Left 2
WINDOW 39 0 0 Left 0
SYMATTR InstName V3
SYMATTR Value 1.65
SYMATTR Value2 AC 1
TEXT -104 -456 Left 2 !.ac dec 100 0.01 150
TEXT -96 -488 Left 2 !.lib ad8534.cir
