Version 4.1
SHEET 1 924 680
WIRE -80 -272 -80 -288
WIRE 64 -272 64 -288
WIRE 0 -144 -80 -144
WIRE 112 -144 64 -144
WIRE 176 -144 112 -144
WIRE 272 -128 240 -128
WIRE 304 -128 272 -128
WIRE -80 -112 -80 -144
WIRE 176 -112 160 -112
WIRE 112 -48 112 -144
WIRE 160 -32 160 -112
WIRE 272 -32 272 -128
WIRE 272 -32 160 -32
WIRE -80 0 -80 -32
WIRE 112 64 112 32
FLAG -80 -272 0
FLAG -80 -368 Vcc
FLAG 64 -272 0
FLAG 64 -368 Vref
FLAG 208 -96 Vcc
FLAG 208 -160 0
FLAG 112 64 Vref
FLAG -80 0 0
SYMBOL voltage -80 -384 R0
SYMATTR InstName V1
SYMATTR Value 3.3
SYMBOL voltage 64 -384 R0
SYMATTR InstName V2
SYMATTR Value 1.65
SYMBOL OpAmps\\opamp2 208 -64 M180
SYMATTR InstName U1
SYMATTR Value ad8534
SYMBOL cap 64 -160 R90
WINDOW 0 0 32 VBottom 2
WINDOW 3 32 32 VTop 2
SYMATTR InstName C1
SYMATTR Value 10”
SYMBOL res 96 -64 R0
WINDOW 0 -61 54 Left 2
WINDOW 3 -71 78 Left 2
SYMATTR InstName R1
SYMATTR Value 31.9k
SYMBOL voltage -80 -128 R0
WINDOW 123 24 44 Left 2
WINDOW 39 0 0 Left 0
SYMATTR InstName V3
SYMATTR Value ""
SYMATTR Value2 AC 1
TEXT -104 -456 Left 2 !.ac dec 100 0.01 150
TEXT -96 -488 Left 2 !.lib ad8534.cir
