Version 4.1
SHEET 1 3224 848
WIRE -304 -176 -304 -192
WIRE -160 -176 -160 -192
WIRE 288 -128 272 -128
WIRE 320 -128 304 -128
WIRE 352 -128 336 -128
WIRE 1472 -128 1280 -128
WIRE 1680 -128 1536 -128
WIRE 144 -112 112 -112
WIRE 240 -112 240 -144
WIRE 240 -112 208 -112
WIRE 288 -112 288 -128
WIRE 320 -112 320 -128
WIRE 352 -112 352 -128
WIRE 2080 -112 1888 -112
WIRE 2288 -112 2144 -112
WIRE 112 -96 112 -112
WIRE 240 -64 240 -112
WIRE 272 -64 272 -128
WIRE 304 -64 304 -128
WIRE 336 -64 336 -128
WIRE -160 0 -416 0
WIRE 64 0 -80 0
WIRE 144 0 64 0
WIRE 208 0 144 0
WIRE -416 32 -416 0
WIRE 416 32 368 32
WIRE 656 32 416 32
WIRE 768 32 720 32
WIRE 832 32 768 32
WIRE 928 48 896 48
WIRE 960 48 928 48
WIRE -160 64 -336 64
WIRE 144 64 -80 64
WIRE 176 64 144 64
WIRE 208 64 176 64
WIRE 832 64 816 64
WIRE 960 64 960 48
WIRE 1120 64 960 64
WIRE 1168 64 1120 64
WIRE 1280 64 1280 -128
WIRE 1280 64 1248 64
WIRE 1312 64 1280 64
WIRE 1424 64 1392 64
WIRE 1504 64 1424 64
WIRE 1424 80 1424 64
WIRE 1680 80 1680 -128
WIRE 1680 80 1568 80
WIRE 1776 80 1680 80
WIRE 1888 80 1888 -112
WIRE 1888 80 1856 80
WIRE 1920 80 1888 80
WIRE 2032 80 2000 80
WIRE 2112 80 2032 80
WIRE 1504 96 1472 96
WIRE 1680 96 1680 80
WIRE 2032 96 2032 80
WIRE 2288 96 2288 -112
WIRE 2288 96 2176 96
WIRE 2352 96 2288 96
WIRE 2112 112 2080 112
WIRE 2288 112 2288 96
WIRE 768 128 768 32
WIRE 240 144 240 128
WIRE 336 144 336 128
WIRE 816 144 816 64
WIRE 928 144 928 48
WIRE 928 144 816 144
WIRE 288 160 288 128
WIRE -336 176 -336 64
WIRE 1424 176 1424 144
WIRE 1472 192 1472 96
WIRE 1680 192 1680 176
WIRE 1680 192 1472 192
WIRE 2032 192 2032 160
WIRE 1680 208 1680 192
WIRE 2080 208 2080 112
WIRE 2288 208 2288 192
WIRE 2288 208 2080 208
WIRE -416 224 -416 112
WIRE 2288 224 2288 208
WIRE 768 240 768 208
WIRE -416 304 -416 224
WIRE -336 304 -336 256
WIRE 1680 320 1680 288
WIRE 2288 336 2288 304
WIRE 64 352 64 0
WIRE 144 352 144 64
WIRE 64 480 64 432
WIRE 112 480 64 480
WIRE 144 480 144 432
WIRE 144 480 112 480
WIRE 0 656 -32 656
WIRE 112 656 112 480
WIRE 112 656 64 656
WIRE 112 736 112 656
WIRE 112 736 80 736
WIRE -144 752 -176 752
WIRE -32 752 -32 656
WIRE -32 752 -64 752
WIRE 16 752 -32 752
WIRE 160 768 80 768
WIRE 48 800 48 784
FLAG 240 144 0
FLAG 352 -112 0
FLAG 320 -112 0
FLAG 288 -112 0
FLAG 240 -144 Vcc
FLAG 288 160 Vcc
FLAG 336 144 Vref
FLAG 416 32 VINA
FLAG 160 768 Vref
FLAG -176 752 Vrld
FLAG 48 720 Vcc
FLAG 48 800 0
FLAG 144 0 Vinp
FLAG 176 64 Vinn
FLAG -336 304 Vrld
FLAG -416 224 Vrld
FLAG 112 -96 0
FLAG -304 -176 0
FLAG -304 -272 Vcc
FLAG -160 -176 0
FLAG -160 -272 Vref
FLAG 2032 192 Vref
FLAG 2144 64 0
FLAG 2144 128 Vcc
FLAG 864 80 Vcc
FLAG 864 16 0
FLAG 2352 96 Vekg
FLAG 768 240 Vref
FLAG 2288 336 Vref
FLAG 1424 176 Vref
FLAG 1536 48 0
FLAG 1536 112 Vcc
FLAG 1680 320 Vref
FLAG 1120 64 VFTS
SYMBOL OpAmps\\MAX41400 240 32 R0
WINDOW 3 141 -89 Left 2
SYMATTR InstName U1
SYMBOL voltage -416 16 R0
WINDOW 3 209 -463 Left 2
WINDOW 123 0 0 Left 0
WINDOW 39 0 0 Left 0
WINDOW 0 18 16 Left 2
SYMATTR Value PWL file=C:\users\andrei\Documents\Licenta\AchizitionareSemnal\ekg_signal.txt
SYMATTR InstName V1
SYMBOL voltage -336 160 R0
WINDOW 3 131 -627 Left 2
WINDOW 123 0 0 Left 0
WINDOW 39 0 0 Left 0
WINDOW 0 26 30 Left 2
SYMATTR Value PWL file=C:\users\andrei\Documents\Licenta\AchizitionareSemnal\ekg_signal2.txt
SYMATTR InstName V2
SYMBOL res 128 336 R0
SYMATTR InstName R1
SYMATTR Value 1Meg
SYMBOL res 48 336 R0
WINDOW 0 -39 52 Left 2
WINDOW 3 -70 81 Left 2
SYMATTR InstName R2
SYMATTR Value 1Meg
SYMBOL OpAmps\\opamp2 48 688 M0
WINDOW 3 -42 144 Left 2
SYMATTR Value ad8534
SYMATTR InstName U2
SYMBOL cap 64 640 R90
WINDOW 0 0 32 VBottom 2
WINDOW 3 -13 69 VTop 2
SYMATTR InstName C1
SYMATTR Value 1n
SYMBOL res -48 736 R90
WINDOW 0 0 56 VBottom 2
WINDOW 3 32 56 VTop 2
SYMATTR InstName R3
SYMATTR Value 1Meg
SYMBOL cap 208 -128 R90
WINDOW 0 0 32 VBottom 2
WINDOW 3 31 44 VTop 2
SYMATTR InstName C2
SYMATTR Value 100n
SYMBOL res -64 -16 R90
WINDOW 0 0 56 VBottom 2
WINDOW 3 32 56 VTop 2
SYMATTR InstName R4
SYMATTR Value 10k
SYMBOL res -64 48 R90
WINDOW 0 16 102 VBottom 2
WINDOW 3 32 56 VTop 2
SYMATTR InstName R5
SYMATTR Value 10k
SYMBOL voltage -304 -288 R0
SYMATTR InstName V3
SYMATTR Value 3.3
SYMBOL voltage -160 -288 R0
SYMATTR InstName V4
SYMATTR Value 1.65
SYMBOL res 1872 64 R90
WINDOW 0 0 56 VBottom 2
WINDOW 3 32 56 VTop 2
SYMATTR InstName R9
SYMATTR Value 3.82k
SYMBOL res 2016 64 R90
WINDOW 0 0 56 VBottom 2
WINDOW 3 37 52 VTop 2
SYMATTR InstName R10
SYMATTR Value 26.7k
SYMBOL cap 2144 -128 R90
WINDOW 0 0 32 VBottom 2
WINDOW 3 32 32 VTop 2
SYMATTR InstName C4
SYMATTR Value 110n
SYMBOL OpAmps\\opamp2 2144 160 M180
SYMATTR InstName U4
SYMATTR Value ad8534
SYMBOL cap 2016 96 R0
WINDOW 0 -30 46 Left 2
WINDOW 3 -59 62 Left 2
SYMATTR InstName C5
SYMATTR Value 110n
SYMBOL OpAmps\\opamp2 864 112 M180
SYMATTR InstName U5
SYMATTR Value ad8534
SYMBOL cap 720 16 R90
WINDOW 0 0 32 VBottom 2
WINDOW 3 32 32 VTop 2
SYMATTR InstName C6
SYMATTR Value 10µ
SYMBOL res 752 112 R0
WINDOW 0 -61 54 Left 2
WINDOW 3 -71 78 Left 2
SYMATTR InstName R11
SYMATTR Value 31.9k
SYMBOL res 2272 96 R0
SYMATTR InstName R13
SYMATTR Value 7.29k
SYMBOL res 2272 208 R0
SYMATTR InstName R14
SYMATTR Value 2.49k
SYMBOL res 1264 48 R90
WINDOW 0 0 56 VBottom 2
WINDOW 3 32 56 VTop 2
SYMATTR InstName R6
SYMATTR Value 6.25k
SYMBOL res 1408 48 R90
WINDOW 0 0 56 VBottom 2
WINDOW 3 37 52 VTop 2
SYMATTR InstName R7
SYMATTR Value 15.7k
SYMBOL cap 1536 -144 R90
WINDOW 0 0 32 VBottom 2
WINDOW 3 32 32 VTop 2
SYMATTR InstName C3
SYMATTR Value 100n
SYMBOL OpAmps\\opamp2 1536 144 M180
SYMATTR InstName U3
SYMATTR Value ad8534
SYMBOL cap 1408 80 R0
WINDOW 0 -30 46 Left 2
WINDOW 3 -59 62 Left 2
SYMATTR InstName C8
SYMATTR Value 100n
SYMBOL res 1664 80 R0
SYMATTR InstName R8
SYMATTR Value 6.06k
SYMBOL res 1664 192 R0
SYMATTR InstName R15
SYMATTR Value 3.92k
TEXT 216 -280 Left 2 !.lib ad8534.cir
TEXT 224 -248 Left 2 !.tran 20 uic
TEXT 224 -216 Left 2 ;.ac dec 100 0.1 300
