Version 4.1
SHEET 1 880 680
WIRE 448 -80 256 -80
WIRE 256 64 256 -80
WIRE 320 64 256 64
WIRE 448 80 448 -80
WIRE 448 80 384 80
WIRE 512 80 448 80
WIRE -112 96 -208 96
WIRE -64 96 -112 96
WIRE 96 96 0 96
WIRE 128 96 96 96
WIRE 224 96 192 96
WIRE 320 96 224 96
WIRE 352 128 352 112
WIRE -112 192 -112 96
WIRE -64 192 -112 192
WIRE 32 192 16 192
WIRE 128 192 32 192
WIRE 224 192 224 96
WIRE 224 192 208 192
WIRE 448 192 448 80
WIRE 32 240 32 192
WIRE 96 304 96 96
WIRE 448 384 448 272
WIRE 448 384 384 384
WIRE 32 400 32 304
WIRE 96 400 96 384
WIRE 96 400 32 400
WIRE 208 400 96 400
WIRE 320 400 208 400
WIRE 416 416 384 416
WIRE 448 432 448 384
WIRE 208 480 208 400
WIRE 416 480 416 416
WIRE 416 480 208 480
FLAG -96 -96 0
FLAG -96 -176 Vcc
FLAG -192 -96 0
FLAG -192 -176 Vref
FLAG 352 128 0
FLAG 352 48 Vcc
FLAG 512 80 Vnotch
FLAG 448 512 Vref
FLAG 352 432 Vcc
FLAG 352 368 0
FLAG -208 176 Vref
SYMBOL voltage -96 -192 R0
SYMATTR InstName V3
SYMATTR Value 3.3
SYMBOL voltage -192 -192 R0
SYMATTR InstName V2
SYMATTR Value 1.65
SYMBOL OpAmps\\opamp2 352 16 R0
SYMATTR InstName U1
SYMATTR Value ad8534
SYMBOL res 432 176 R0
SYMATTR InstName R1
SYMATTR Value 1k
SYMBOL res 432 416 R0
SYMATTR InstName R2
SYMATTR Value 10k
SYMBOL cap 192 80 R90
WINDOW 0 0 32 VBottom 2
WINDOW 3 32 32 VTop 2
SYMATTR InstName C1
SYMATTR Value 100n
SYMBOL cap 0 80 R90
WINDOW 0 0 32 VBottom 2
WINDOW 3 32 32 VTop 2
SYMATTR InstName C2
SYMATTR Value 100n
SYMBOL res 224 176 R90
WINDOW 0 0 56 VBottom 2
WINDOW 3 32 56 VTop 2
SYMATTR InstName R3
SYMATTR Value 31.8k
SYMBOL res 32 176 R90
WINDOW 0 0 56 VBottom 2
WINDOW 3 32 56 VTop 2
SYMATTR InstName R4
SYMATTR Value 31.8k
SYMBOL cap 16 240 R0
WINDOW 0 -51 34 Left 2
WINDOW 3 -52 54 Left 2
SYMATTR InstName C3
SYMATTR Value 200n
SYMBOL res 80 288 R0
SYMATTR InstName R5
SYMATTR Value 15.9k
SYMBOL OpAmps\\opamp2 352 464 R180
SYMATTR InstName U2
SYMATTR Value ad8534
SYMBOL voltage -208 80 R0
WINDOW 123 24 124 Left 2
WINDOW 39 0 0 Left 0
SYMATTR InstName V1
SYMATTR Value ""
SYMATTR Value2 AC 1
TEXT -48 624 Left 2 !.ac dec 100 1 10k
TEXT -48 600 Left 2 !.lib ad8534.cir
