Version 4.1
SHEET 1 880 680
WIRE 160 -432 160 -496
WIRE 160 -432 80 -432
WIRE 272 -432 272 -496
WIRE 368 -432 272 -432
WIRE 160 -416 160 -432
WIRE 272 -416 272 -432
WIRE 80 -400 80 -432
WIRE 368 -400 368 -432
WIRE 80 -272 80 -336
WIRE 160 -272 160 -336
WIRE 160 -272 80 -272
WIRE 272 -272 272 -336
WIRE 368 -272 368 -336
WIRE 368 -272 272 -272
WIRE 160 -160 160 -272
WIRE 48 -144 -48 -144
WIRE 112 -144 48 -144
WIRE -48 -128 -48 -144
WIRE 464 -112 464 -144
WIRE 112 -96 80 -96
WIRE 160 -64 160 -80
WIRE -48 -32 -48 -48
WIRE 272 0 272 -272
WIRE 272 0 160 0
WIRE 464 0 464 -32
WIRE 160 32 160 0
WIRE 48 48 48 -144
WIRE 112 48 48 48
WIRE 80 96 80 -96
WIRE 112 96 80 96
WIRE 80 112 80 96
WIRE 464 112 464 80
WIRE 160 128 160 112
WIRE 464 224 464 192
FLAG -48 -32 0
FLAG 80 112 0
FLAG 464 -144 VCM
FLAG 160 -64 VCM
FLAG 160 128 VCM
FLAG 160 -496 LA
IOPIN 160 -496 Out
FLAG 272 -496 RA
IOPIN 272 -496 Out
FLAG 464 224 RL
IOPIN 464 224 In
SYMBOL e 160 -176 R0
WINDOW 3 26 81 Left 2
SYMATTR Value 0.5
SYMATTR InstName E1
SYMBOL e 160 16 R0
WINDOW 3 14 92 Left 2
SYMATTR Value -0.5
SYMATTR InstName E2
SYMBOL voltage -48 -144 R0
WINDOW 3 -863 149 Left 2
WINDOW 123 0 0 Left 0
WINDOW 39 0 0 Left 0
SYMATTR Value PWL file=C:\Users\botaa\Documents\Licenta\Licenta\AchizitionareSemnal\ekg_signal2.txt
SYMATTR InstName V1
SYMBOL voltage 464 -128 R0
WINDOW 0 24 29 Left 2
SYMATTR InstName BaseLineWander
SYMATTR Value SINE(0 100m 50)
SYMBOL voltage 464 -16 R0
WINDOW 0 27 34 Left 2
WINDOW 3 27 76 Left 2
WINDOW 123 0 0 Left 0
WINDOW 39 0 0 Left 0
SYMATTR InstName 50HZ
SYMATTR Value SINE(0 200m 0.02)
SYMBOL res 256 -432 R0
SYMATTR InstName R1
SYMATTR Value {Rra}
SYMBOL res 144 -432 R0
SYMATTR InstName R2
SYMATTR Value {Rla}
SYMBOL cap 64 -400 R0
SYMATTR InstName C1
SYMATTR Value {Cla}
SYMBOL cap 352 -400 R0
SYMATTR InstName C2
SYMATTR Value {Cra}
SYMBOL voltage 464 96 R0
SYMATTR InstName EMG
SYMATTR Value SINE(0 100m 200)
