Version 4.1
SHEET 1 1124 680
WIRE -80 -80 -256 -80
WIRE 144 -80 0 -80
WIRE 528 -64 352 -64
WIRE 752 -64 608 -64
WIRE -352 112 -384 112
WIRE -256 112 -256 -80
WIRE -256 112 -288 112
WIRE -224 112 -256 112
WIRE -112 112 -160 112
WIRE -32 112 -112 112
WIRE -112 128 -112 112
WIRE 144 128 144 -80
WIRE 144 128 32 128
WIRE 256 128 144 128
WIRE 352 128 352 -64
WIRE 352 128 320 128
WIRE 400 128 352 128
WIRE 496 128 464 128
WIRE 576 128 496 128
WIRE -32 144 -64 144
WIRE 144 144 144 128
WIRE 496 144 496 128
WIRE 752 144 752 -64
WIRE 752 144 640 144
WIRE 816 144 752 144
WIRE 576 160 544 160
WIRE 752 160 752 144
WIRE -112 224 -112 208
WIRE -64 240 -64 144
WIRE 144 240 144 224
WIRE 144 240 -64 240
WIRE 496 240 496 224
WIRE 144 256 144 240
WIRE 544 256 544 160
WIRE 752 256 752 240
WIRE 752 256 544 256
WIRE 752 272 752 256
FLAG 496 240 Vref
FLAG 608 112 0
FLAG 608 176 Vcc
FLAG -112 224 Vref
FLAG 0 96 0
FLAG 0 160 Vcc
FLAG 816 144 VFTS
IOPIN 816 144 Out
FLAG 144 336 Vref
FLAG 752 352 Vref
FLAG -384 112 VINA
IOPIN -384 112 In
FLAG 960 16 0
FLAG 960 -64 Vref
FLAG 1056 16 0
FLAG 1056 -64 Vcc
SYMBOL OpAmps\\opamp2 608 208 M180
SYMATTR InstName U1
SYMATTR Value ad8534
SYMBOL OpAmps\\opamp2 0 192 M180
SYMATTR InstName U2
SYMATTR Value ad8534
SYMBOL cap -288 96 R90
WINDOW 0 0 32 VBottom 2
WINDOW 3 32 32 VTop 2
SYMATTR InstName C1
SYMATTR Value 10”
SYMBOL cap -160 96 R90
WINDOW 0 0 32 VBottom 2
WINDOW 3 32 32 VTop 2
SYMATTR InstName C2
SYMATTR Value 10”
SYMBOL res -128 112 R0
WINDOW 0 -43 68 Left 2
WINDOW 3 -63 92 Left 2
SYMATTR InstName R1
SYMATTR Value 41.1k
SYMBOL res 16 -96 R90
WINDOW 0 0 56 VBottom 2
WINDOW 3 68 51 VBottom 2
SYMATTR InstName R2
SYMATTR Value 63.5k
SYMBOL cap 320 112 R90
WINDOW 0 0 32 VBottom 2
WINDOW 3 32 32 VTop 2
SYMATTR InstName C3
SYMATTR Value 10”
SYMBOL cap 464 112 R90
WINDOW 0 0 32 VBottom 2
WINDOW 3 32 32 VTop 2
SYMATTR InstName C4
SYMATTR Value 10”
SYMBOL res 624 -80 R90
WINDOW 0 0 56 VBottom 2
WINDOW 3 32 56 VTop 2
SYMATTR InstName R3
SYMATTR Value 81.2k
SYMBOL res 480 128 R0
WINDOW 0 -47 75 Left 2
WINDOW 3 -57 96 Left 2
SYMATTR InstName R4
SYMATTR Value 25.6k
SYMBOL res 128 128 R0
SYMATTR InstName R5
SYMATTR Value 6.06k
SYMBOL res 128 240 R0
SYMATTR InstName R6
SYMATTR Value 3.92k
SYMBOL res 736 144 R0
SYMATTR InstName R7
SYMATTR Value 7.29k
SYMBOL res 736 256 R0
SYMATTR InstName R8
SYMATTR Value 2.49k
SYMBOL voltage 960 -80 R0
SYMATTR InstName V1
SYMATTR Value 1.65
SYMBOL voltage 1056 -80 R0
SYMATTR InstName V2
SYMATTR Value 3.3
