Version 4.1
SHEET 1 880 680
WIRE 144 32 128 32
WIRE 176 32 160 32
WIRE 208 32 192 32
WIRE 144 48 144 32
WIRE 176 48 176 32
WIRE 208 48 208 32
WIRE 96 96 96 16
WIRE 128 96 128 32
WIRE 160 96 160 32
WIRE 192 96 192 32
WIRE 64 160 32 160
WIRE 272 192 224 192
WIRE 64 224 32 224
WIRE 96 304 96 288
WIRE 192 304 192 288
WIRE 144 320 144 288
FLAG 96 304 0
FLAG 208 48 0
FLAG 176 48 0
FLAG 96 16 Vcc
FLAG 144 320 Vcc
FLAG 272 192 VINA
IOPIN 272 192 Out
FLAG 144 48 0
FLAG 192 304 Vref
FLAG 32 160 INP
IOPIN 32 160 In
FLAG 32 224 INN
IOPIN 32 224 In
FLAG 304 -32 VCC
FLAG 304 48 0
FLAG 400 -32 Vref
FLAG 400 48 0
SYMBOL OpAmps\\MAX41400 96 192 R0
WINDOW 3 141 -89 Left 2
SYMATTR InstName U1
SYMBOL voltage 304 -48 R0
SYMATTR InstName V1
SYMATTR Value 3.3
SYMBOL voltage 400 -48 R0
SYMATTR InstName V2
SYMATTR Value 1.65
