Version 4.1
SHEET 1 880 680
WIRE -32 -16 -32 -48
WIRE -160 112 -176 112
WIRE -32 112 -32 64
WIRE -32 112 -96 112
WIRE -176 128 -176 112
WIRE -32 160 -32 112
WIRE -32 160 -192 160
WIRE -32 208 -32 160
WIRE 752 240 576 240
WIRE 432 256 432 240
WIRE 576 320 576 240
WIRE 624 320 576 320
WIRE -192 336 -192 160
WIRE -160 336 -192 336
WIRE 128 336 96 336
WIRE 208 336 128 336
WIRE 256 336 208 336
WIRE 752 336 752 240
WIRE 752 336 688 336
WIRE 784 336 752 336
WIRE 128 352 128 336
WIRE 208 352 208 336
WIRE 432 352 432 336
WIRE 432 352 384 352
WIRE 624 352 432 352
WIRE 384 368 384 352
WIRE 432 368 432 352
WIRE 656 384 656 368
WIRE 128 432 128 416
WIRE 208 432 208 416
WIRE 384 464 384 432
WIRE 432 464 432 448
WIRE -32 496 -32 464
FLAG -32 -48 0
FLAG -32 496 0
FLAG -176 128 0
FLAG 784 336 Vref
IOPIN 784 336 Out
FLAG 656 384 0
FLAG 656 304 Vcc
FLAG 432 240 Vcc
FLAG 432 464 0
FLAG 384 464 0
FLAG 256 336 Vcc
IOPIN 256 336 Out
FLAG 128 432 0
FLAG 208 432 0
SYMBOL PowerProducts\\ADP151-3.3 -32 336 R0
SYMATTR InstName U1
SYMBOL voltage -32 80 R180
WINDOW 0 24 96 Left 2
WINDOW 3 24 16 Left 2
SYMATTR InstName Vusb1
SYMATTR Value 5
SYMBOL cap -160 128 R270
WINDOW 0 32 32 VTop 2
WINDOW 3 0 32 VBottom 2
SYMATTR InstName C1
SYMATTR Value 1”
SYMBOL OpAmps\\opamp2 656 272 R0
SYMATTR InstName U2
SYMATTR Value ad8534
SYMBOL res 416 240 R0
SYMATTR InstName R1
SYMATTR Value 100k
SYMBOL res 416 352 R0
WINDOW 3 36 59 Left 2
SYMATTR Value 100k
SYMATTR InstName R2
SYMBOL cap 400 432 R180
WINDOW 0 24 56 Left 2
WINDOW 3 20 15 Left 2
SYMATTR InstName C2
SYMATTR Value 1”
SYMBOL cap 112 352 R0
SYMATTR InstName C3
SYMATTR Value 1”
SYMATTR SpiceLine Rser=0.5
SYMBOL zener 224 416 R180
WINDOW 0 24 64 Left 2
WINDOW 3 -71 -50 Left 2
SYMATTR InstName D1
SYMATTR Value DI_BZX84C3V3
SYMATTR Prefix X
