Version 4.1
SHEET 1 1792 680
WIRE -2480 -256 -2512 -256
WIRE -2480 -240 -2480 -256
WIRE -2432 -240 -2480 -240
WIRE -2032 -240 -2080 -240
WIRE -1872 -240 -2032 -240
WIRE -1696 -208 -1728 -208
WIRE -1648 -208 -1696 -208
WIRE -1376 -208 -1424 -208
WIRE -1328 -208 -1376 -208
WIRE -992 -208 -1056 -208
WIRE -928 -208 -992 -208
WIRE -2432 -176 -2480 -176
WIRE -1968 -176 -2080 -176
WIRE -1872 -176 -1968 -176
WIRE -2480 -160 -2480 -176
WIRE -2480 -160 -2512 -160
WIRE -2032 -96 -2032 -240
WIRE -1968 -96 -1968 -176
WIRE -2032 0 -2032 -16
WIRE -2000 0 -2032 0
WIRE -1968 0 -1968 -16
WIRE -1968 0 -2000 0
WIRE -2000 144 -2000 0
WIRE -2000 144 -2032 144
WIRE -2176 192 -2512 192
WIRE -2000 240 -2032 240
WIRE -2992 272 -3056 272
WIRE -2992 320 -3056 320
FLAG -656 -208 VFTJ
FLAG -2000 240 Vref
FLAG -2992 320 Vref
FLAG -2992 272 Vcc
FLAG -1696 -208 VINA
FLAG -1376 -208 VFTS
FLAG -992 -208 VNOTCH
SYMBOL Electrozi -2560 -224 R0
WINDOW 39 -825 312 Left 1
SYMATTR SpiceLine Rla=51k Rra=100k Cla=47n Cra=47n
SYMATTR InstName X3
SYMBOL INA -1872 -208 R0
SYMATTR InstName X1
SYMBOL FTS -1536 -208 R0
SYMATTR InstName X4
SYMBOL FTJ -800 -224 R0
SYMATTR InstName X6
SYMBOL res -1984 -112 R0
WINDOW 0 40 55 Left 2
WINDOW 3 33 82 Left 2
SYMATTR InstName R1
SYMATTR Value 10Meg
SYMBOL res -2048 -112 R0
WINDOW 0 -39 52 Left 2
WINDOW 3 -70 81 Left 2
SYMATTR InstName R2
SYMATTR Value 10Meg
SYMBOL RLD -2032 192 R0
SYMATTR InstName X2
SYMBOL PSU -3232 288 R0
SYMATTR InstName X7
SYMBOL NOTCH50 -1184 -208 R0
SYMATTR InstName X8
SYMBOL Protectie -2304 -208 R0
SYMATTR InstName X5
TEXT -3392 168 Left 2 !.lib ad8534.cir
TEXT -3392 192 Left 2 !.tran 0 35 30
TEXT -3392 144 Left 2 !.inc BZX84C3V6.spice.txt
TEXT -3384 112 Left 2 ;Param. Electrozi
