Version 4.1
SHEET 1 880 680
WIRE 256 48 224 48
WIRE 224 64 224 48
WIRE 112 128 48 128
WIRE 368 144 336 144
WIRE 224 288 224 272
FLAG 256 48 0
FLAG 368 144 0
FLAG 224 288 0
FLAG 48 128 INADC
IOPIN 48 128 In
SYMBOL Comparators\\ADCMP356 208 192 R0
SYMATTR InstName U1
