Version 4.1
SHEET 1 3200 804
WIRE -1312 -784 -1312 -816
WIRE -1440 -656 -1456 -656
WIRE -1312 -656 -1312 -704
WIRE -1312 -656 -1376 -656
WIRE -1456 -640 -1456 -656
WIRE -1312 -608 -1312 -656
WIRE -1312 -608 -1472 -608
WIRE -1312 -560 -1312 -608
WIRE -656 -544 -832 -544
WIRE -976 -528 -976 -544
WIRE -832 -464 -832 -544
WIRE -784 -464 -832 -464
WIRE -656 -448 -656 -544
WIRE -656 -448 -720 -448
WIRE -624 -448 -656 -448
WIRE -1472 -432 -1472 -608
WIRE -1440 -432 -1472 -432
WIRE -1136 -432 -1184 -432
WIRE -1120 -432 -1136 -432
WIRE -976 -432 -976 -448
WIRE -976 -432 -1024 -432
WIRE -784 -432 -976 -432
WIRE -1136 -416 -1136 -432
WIRE -1024 -416 -1024 -432
WIRE -976 -416 -976 -432
WIRE -752 -400 -752 -416
WIRE -1136 -336 -1136 -352
WIRE -1024 -320 -1024 -352
WIRE -976 -320 -976 -336
WIRE -1312 -272 -1312 -304
WIRE 624 -192 448 -192
WIRE 848 -192 704 -192
WIRE -480 -176 -496 -176
WIRE -448 -176 -464 -176
WIRE -416 -176 -432 -176
WIRE 2256 -176 2064 -176
WIRE 2464 -176 2320 -176
WIRE -1232 -160 -1232 -176
WIRE -624 -160 -672 -160
WIRE -528 -160 -528 -192
WIRE -528 -160 -560 -160
WIRE -480 -160 -480 -176
WIRE -448 -160 -448 -176
WIRE -416 -160 -416 -176
WIRE 2864 -160 2672 -160
WIRE 3072 -160 2928 -160
WIRE -1280 -144 -1280 -176
WIRE -1120 -144 -1120 -160
WIRE -1088 -144 -1120 -144
WIRE -992 -144 -1024 -144
WIRE -944 -144 -992 -144
WIRE -848 -144 -880 -144
WIRE -672 -144 -672 -160
WIRE 1712 -144 1520 -144
WIRE -848 -128 -848 -144
WIRE -528 -112 -528 -160
WIRE -496 -112 -496 -176
WIRE -464 -112 -464 -176
WIRE -432 -112 -432 -176
WIRE -1424 -48 -1920 -48
WIRE -1280 -48 -1280 -96
WIRE -1280 -48 -1344 -48
WIRE -1232 -48 -1232 -80
WIRE -1232 -48 -1280 -48
WIRE -1120 -48 -1232 -48
WIRE -992 -48 -992 -144
WIRE -992 -48 -1040 -48
WIRE -832 -48 -992 -48
WIRE -624 -48 -832 -48
WIRE -560 -48 -624 -48
WIRE -352 -16 -400 -16
WIRE -128 -16 -352 -16
WIRE -16 -16 -64 -16
WIRE 64 -16 -16 -16
WIRE -16 0 -16 -16
WIRE 240 0 128 0
WIRE 352 0 240 0
WIRE 448 0 448 -192
WIRE 448 0 416 0
WIRE 496 0 448 0
WIRE 592 0 560 0
WIRE 672 0 592 0
WIRE 1520 0 1520 -144
WIRE 1584 0 1520 0
WIRE -1440 16 -1808 16
WIRE -1248 16 -1360 16
WIRE -1200 16 -1248 16
WIRE -1120 16 -1200 16
WIRE -992 16 -1040 16
WIRE -752 16 -992 16
WIRE -624 16 -752 16
WIRE -560 16 -624 16
WIRE 64 16 32 16
WIRE 240 16 240 0
WIRE 592 16 592 0
WIRE 848 16 848 -192
WIRE 848 16 736 16
WIRE 912 16 848 16
WIRE 1712 16 1712 -144
WIRE 1712 16 1648 16
WIRE 1776 16 1712 16
WIRE 1952 16 1776 16
WIRE 2064 16 2064 -176
WIRE 2064 16 2032 16
WIRE 2096 16 2064 16
WIRE 2208 16 2176 16
WIRE 2288 16 2208 16
WIRE 672 32 640 32
WIRE 912 32 912 16
WIRE 1152 32 912 32
WIRE 1200 32 1152 32
WIRE 1360 32 1264 32
WIRE 1392 32 1360 32
WIRE 1488 32 1456 32
WIRE 1584 32 1488 32
WIRE 2208 32 2208 16
WIRE 2464 32 2464 -176
WIRE 2464 32 2352 32
WIRE 2560 32 2464 32
WIRE 2672 32 2672 -160
WIRE 2672 32 2640 32
WIRE 2704 32 2672 32
WIRE 2816 32 2784 32
WIRE 2896 32 2816 32
WIRE 2288 48 2256 48
WIRE 2464 48 2464 32
WIRE 3072 48 3072 -160
WIRE 3072 48 2960 48
WIRE 3136 48 3072 48
WIRE -1248 64 -1248 16
WIRE 1616 64 1616 48
WIRE 2896 64 2864 64
WIRE 3072 64 3072 48
WIRE -1200 80 -1200 16
WIRE -528 96 -528 80
WIRE -432 96 -432 80
WIRE -16 96 -16 80
WIRE 2816 96 2816 32
WIRE -480 112 -480 80
WIRE 32 112 32 16
WIRE 240 112 240 96
WIRE 240 112 32 112
WIRE 592 112 592 96
WIRE -1120 128 -1120 112
WIRE -1088 128 -1120 128
WIRE -992 128 -992 16
WIRE -992 128 -1024 128
WIRE -944 128 -992 128
WIRE -848 128 -880 128
WIRE 240 128 240 112
WIRE 640 128 640 32
WIRE 848 128 848 16
WIRE 848 128 640 128
WIRE 1152 128 1152 32
WIRE 1200 128 1152 128
WIRE 1296 128 1280 128
WIRE 1392 128 1296 128
WIRE 1488 128 1488 32
WIRE 1488 128 1472 128
WIRE 1712 128 1712 16
WIRE 2208 128 2208 96
WIRE -848 144 -848 128
WIRE 2256 144 2256 48
WIRE 2464 144 2464 128
WIRE 2464 144 2256 144
WIRE -1248 160 -1248 144
WIRE -1200 160 -1200 128
WIRE 2464 160 2464 144
WIRE 2864 160 2864 64
WIRE 3072 160 3072 144
WIRE 3072 160 2864 160
WIRE 1296 176 1296 128
WIRE 3072 176 3072 160
WIRE -1808 208 -1808 16
WIRE -1808 208 -1920 208
WIRE 2816 208 2816 160
WIRE 1360 240 1360 32
WIRE 2464 272 2464 240
WIRE 3072 288 3072 256
WIRE -832 304 -832 -48
WIRE -752 304 -752 16
WIRE 1712 320 1712 208
WIRE 1712 320 1648 320
WIRE 1296 336 1296 240
WIRE 1360 336 1360 320
WIRE 1360 336 1296 336
WIRE 1472 336 1360 336
WIRE 1584 336 1472 336
WIRE 1680 352 1648 352
WIRE 1712 368 1712 320
WIRE 1472 416 1472 336
WIRE 1680 416 1680 352
WIRE 1680 416 1472 416
WIRE -832 432 -832 384
WIRE -784 432 -832 432
WIRE -752 432 -752 384
WIRE -752 432 -784 432
WIRE -896 512 -928 512
WIRE -784 512 -784 432
WIRE -784 512 -816 512
WIRE -1728 560 -1728 368
WIRE -1776 576 -1968 576
WIRE -1968 608 -1968 576
WIRE -928 608 -928 512
WIRE -896 608 -928 608
WIRE -784 608 -784 512
WIRE -784 608 -832 608
WIRE -784 688 -784 608
WIRE -784 688 -816 688
WIRE -1040 704 -1072 704
WIRE -928 704 -928 608
WIRE -928 704 -960 704
WIRE -880 704 -928 704
WIRE -1968 720 -1968 688
WIRE -736 720 -816 720
WIRE -848 752 -848 736
FLAG -736 720 Vref
FLAG -1072 704 Vrld
FLAG -848 672 Vcc
FLAG -848 752 0
FLAG -1312 -816 0
FLAG -1312 -272 0
FLAG -1120 -432 Vcc
FLAG -1136 -336 0
FLAG -1456 -640 0
FLAG -624 -448 Vref
FLAG -752 -400 0
FLAG -752 -480 Vcc
FLAG -976 -544 Vcc
FLAG -976 -320 0
FLAG -1024 -320 0
FLAG 592 112 Vref
FLAG 704 -16 0
FLAG 704 48 Vcc
FLAG -16 96 Vref
FLAG 96 -32 0
FLAG 96 32 Vcc
FLAG 912 16 VFts
FLAG 1616 64 0
FLAG 1616 -16 Vcc
FLAG 1776 16 Vnotch
FLAG 1712 448 Vref
FLAG 1616 368 Vcc
FLAG 1616 304 0
FLAG 240 208 Vref
FLAG -528 96 0
FLAG -416 -160 0
FLAG -448 -160 0
FLAG -528 -192 Vcc
FLAG -480 112 Vcc
FLAG -352 -16 VINA
FLAG -624 -48 Vinp
FLAG -624 16 Vinn
FLAG -672 -144 0
FLAG -480 -160 0
FLAG 2816 208 Vref
FLAG 2928 16 0
FLAG 2928 80 Vcc
FLAG 3136 48 Vekg
FLAG 3072 288 Vref
FLAG 2208 128 Vref
FLAG 2320 0 0
FLAG 2320 64 Vcc
FLAG 2464 272 Vref
FLAG -432 96 Vref
FLAG -1728 368 Potential_Corp
FLAG -1728 640 0
FLAG -1776 624 Vrld
FLAG -848 -128 0
FLAG -1120 -160 Vcc
FLAG -848 144 0
FLAG -1120 112 Vcc
FLAG -1248 160 0
FLAG -1200 160 0
FLAG -1232 -176 0
FLAG -1280 -176 0
FLAG -1920 208 Potential_Corp
FLAG -1920 -48 Potential_Corp
FLAG -1968 720 0
SYMBOL res -768 288 R0
SYMATTR InstName R1
SYMATTR Value 10Meg
SYMBOL res -848 288 R0
WINDOW 0 -39 52 Left 2
WINDOW 3 -70 81 Left 2
SYMATTR InstName R2
SYMATTR Value 10Meg
SYMBOL OpAmps\\opamp2 -848 640 M0
WINDOW 3 -42 144 Left 2
SYMATTR Value ad8534
SYMATTR InstName U1
SYMBOL cap -832 592 R90
WINDOW 0 0 32 VBottom 2
WINDOW 3 -13 69 VTop 2
SYMATTR InstName C1
SYMATTR Value 1000p
SYMBOL res -944 688 R90
WINDOW 0 0 56 VBottom 2
WINDOW 3 32 56 VTop 2
SYMATTR InstName R3
SYMATTR Value 1Meg
SYMBOL PowerProducts\\ADP151-3.3 -1312 -432 R0
SYMATTR InstName U2
SYMBOL voltage -1312 -688 R180
WINDOW 0 24 96 Left 2
WINDOW 3 24 16 Left 2
SYMATTR InstName Vusb1
SYMATTR Value 5
SYMBOL cap -1152 -416 R0
SYMATTR InstName C2
SYMATTR Value 1”
SYMATTR SpiceLine Rser=0.5
SYMBOL cap -1440 -640 R270
WINDOW 0 32 32 VTop 2
WINDOW 3 0 32 VBottom 2
SYMATTR InstName C3
SYMATTR Value 1”
SYMBOL OpAmps\\opamp2 -752 -512 R0
SYMATTR InstName U3
SYMATTR Value ad8534
SYMBOL res -992 -544 R0
SYMATTR InstName R4
SYMATTR Value 100k
SYMBOL res -992 -432 R0
WINDOW 3 36 59 Left 2
SYMATTR Value 100k
SYMATTR InstName R5
SYMBOL cap -1008 -352 R180
WINDOW 0 24 56 Left 2
WINDOW 3 20 15 Left 2
SYMATTR InstName C4
SYMATTR Value 1”
SYMBOL OpAmps\\opamp2 704 80 M180
SYMATTR InstName U4
SYMATTR Value ad8534
SYMBOL OpAmps\\opamp2 96 64 M180
SYMATTR InstName U5
SYMATTR Value ad8534
SYMBOL cap -64 -32 R90
WINDOW 0 0 32 VBottom 2
WINDOW 3 32 32 VTop 2
SYMATTR InstName C5
SYMATTR Value 10”
SYMBOL res -32 -16 R0
WINDOW 0 -43 68 Left 2
WINDOW 3 -63 92 Left 2
SYMATTR InstName R6
SYMATTR Value 316k
SYMBOL cap 416 -16 R90
WINDOW 0 0 32 VBottom 2
WINDOW 3 32 32 VTop 2
SYMATTR InstName C6
SYMATTR Value 10”
SYMBOL cap 560 -16 R90
WINDOW 0 0 32 VBottom 2
WINDOW 3 32 32 VTop 2
SYMATTR InstName C7
SYMATTR Value 10”
SYMBOL res 720 -208 R90
WINDOW 0 0 56 VBottom 2
WINDOW 3 32 56 VTop 2
SYMATTR InstName R7
SYMATTR Value 158k
SYMBOL res 576 0 R0
WINDOW 0 -47 75 Left 2
WINDOW 3 -57 96 Left 2
SYMATTR InstName R8
SYMATTR Value 620k
SYMBOL OpAmps\\opamp2 1616 -48 R0
SYMATTR InstName U6
SYMATTR Value ad8534
SYMBOL res 1696 112 R0
SYMATTR InstName R9
SYMATTR Value 1k
SYMBOL res 1696 352 R0
SYMATTR InstName R10
SYMATTR Value 10k
SYMBOL cap 1456 16 R90
WINDOW 0 0 32 VBottom 2
WINDOW 3 32 32 VTop 2
SYMATTR InstName C8
SYMATTR Value 0.1”
SYMBOL cap 1264 16 R90
WINDOW 0 0 32 VBottom 2
WINDOW 3 32 32 VTop 2
SYMATTR InstName C9
SYMATTR Value 0.1”
SYMBOL res 1488 112 R90
WINDOW 0 0 56 VBottom 2
WINDOW 3 32 56 VTop 2
SYMATTR InstName R11
SYMATTR Value 31.6k
SYMBOL res 1296 112 R90
WINDOW 0 0 56 VBottom 2
WINDOW 3 32 56 VTop 2
SYMATTR InstName R12
SYMATTR Value 31.6k
SYMBOL cap 1280 176 R0
WINDOW 0 -51 34 Left 2
WINDOW 3 -52 54 Left 2
SYMATTR InstName C10
SYMATTR Value 0.22”
SYMBOL res 1344 224 R0
SYMATTR InstName R13
SYMATTR Value 15.4k
SYMBOL OpAmps\\opamp2 1616 400 R180
SYMATTR InstName U7
SYMATTR Value ad8534
SYMBOL res 224 0 R0
SYMATTR InstName R14
SYMATTR Value 9.1k
SYMBOL res 224 112 R0
SYMATTR InstName R15
SYMATTR Value 1k
SYMBOL OpAmps\\MAX41400 -528 -16 R0
WINDOW 3 141 -89 Left 2
SYMATTR InstName U8
SYMBOL cap -560 -176 R90
WINDOW 0 0 32 VBottom 2
WINDOW 3 31 44 VTop 2
SYMATTR InstName C11
SYMATTR Value 0.1”
SYMBOL res 2656 16 R90
WINDOW 0 0 56 VBottom 2
WINDOW 3 32 56 VTop 2
SYMATTR InstName R16
SYMATTR Value 8.66k
SYMBOL res 2800 16 R90
WINDOW 0 0 56 VBottom 2
WINDOW 3 37 52 VTop 2
SYMATTR InstName R17
SYMATTR Value 274k
SYMBOL cap 2928 -176 R90
WINDOW 0 0 32 VBottom 2
WINDOW 3 32 32 VTop 2
SYMATTR InstName C12
SYMATTR Value 0.1”
SYMBOL OpAmps\\opamp2 2928 112 M180
WINDOW 3 24 87 Left 2
SYMATTR Value ad8534
SYMATTR InstName U9
SYMBOL cap 2800 96 R0
WINDOW 0 -30 46 Left 2
WINDOW 3 -44 67 Left 2
SYMATTR InstName C13
SYMATTR Value 4700p
SYMBOL res 3056 48 R0
SYMATTR InstName R18
SYMATTR Value 3.01k
SYMBOL res 3056 160 R0
SYMATTR InstName R19
SYMATTR Value 6.81k
SYMBOL res 2048 0 R90
WINDOW 0 0 56 VBottom 2
WINDOW 3 32 56 VTop 2
SYMATTR InstName R20
SYMATTR Value 3.92k
SYMBOL res 2192 0 R90
WINDOW 0 0 56 VBottom 2
WINDOW 3 29 57 VTop 2
SYMATTR InstName R21
SYMATTR Value 23.7k
SYMBOL cap 2320 -192 R90
WINDOW 0 0 32 VBottom 2
WINDOW 3 32 32 VTop 2
SYMATTR InstName C14
SYMATTR Value 0.1”
SYMBOL OpAmps\\opamp2 2320 96 M180
WINDOW 3 22 82 Left 2
SYMATTR Value ad8534
SYMATTR InstName U10
SYMBOL cap 2192 32 R0
WINDOW 0 -23 44 Left 2
WINDOW 3 -41 67 Left 2
SYMATTR InstName C15
SYMATTR Value 0.1”
SYMBOL res 2448 32 R0
SYMATTR InstName R22
SYMATTR Value 7.15k
SYMBOL res 2448 144 R0
SYMATTR InstName R23
SYMATTR Value 2.87k
SYMBOL res -800 496 R90
WINDOW 0 0 56 VBottom 2
WINDOW 3 32 56 VTop 2
SYMATTR InstName R24
SYMATTR Value 10Meg
SYMBOL e -1728 544 R0
SYMATTR InstName E3
SYMATTR Value 1
SYMBOL res -1328 -64 R90
WINDOW 0 0 56 VBottom 2
WINDOW 3 32 56 VTop 2
SYMATTR InstName R25
SYMATTR Value 20k
SYMBOL res -1344 0 R90
WINDOW 0 16 102 VBottom 2
WINDOW 3 32 56 VTop 2
SYMATTR InstName R26
SYMATTR Value 20k
SYMBOL sw -1248 160 R180
WINDOW 0 21 18 Left 2
SYMATTR InstName LampaNeon1
SYMBOL sw -1232 -176 R0
SYMATTR InstName S1
SYMBOL res -1024 -64 R90
WINDOW 0 0 56 VBottom 2
WINDOW 3 32 56 VTop 2
SYMATTR InstName R27
SYMATTR Value 10k
SYMBOL res -1024 0 R90
WINDOW 0 15 104 VBottom 2
WINDOW 3 32 56 VTop 2
SYMATTR InstName R28
SYMATTR Value 10k
SYMBOL zener -880 -160 R90
WINDOW 0 -4 32 VBottom 2
WINDOW 3 -68 -16 VTop 2
SYMATTR InstName D1
SYMATTR Value DI_BZX84C3V3
SYMATTR Prefix X
SYMBOL zener -1024 -160 R90
WINDOW 0 -4 32 VBottom 2
WINDOW 3 -66 36 VTop 2
SYMATTR InstName D2
SYMATTR Value DI_BZX84C3V3
SYMATTR Prefix X
SYMBOL zener -880 112 R90
WINDOW 0 -4 32 VBottom 2
WINDOW 3 36 32 VTop 2
SYMATTR InstName D3
SYMATTR Value DI_BZX84C3V3
SYMATTR Prefix X
SYMBOL zener -1024 112 R90
WINDOW 0 -4 32 VBottom 2
WINDOW 3 36 74 VTop 2
SYMATTR InstName D4
SYMATTR Value DI_BZX84C3V3
SYMATTR Prefix X
SYMBOL voltage -1968 592 R0
WINDOW 123 24 122 Left 2
WINDOW 39 0 0 Left 0
SYMATTR InstName V1
SYMATTR Value ""
SYMATTR Value2 AC 1
TEXT -888 -296 Left 2 !.lib ad8534.cir
TEXT -888 -272 Left 2 ;.tran 0 35 30 uic
TEXT -776 -328 Left 2 !.model SW SW(Vt=90 Vh=-5 Ron=0.1 Roff=1G)
TEXT -536 -288 Left 2 !.inc BZX84C3V3.spice.txt
TEXT -888 -240 Left 2 !.ac dec 100 0.1 1000
