Version 4.1
SHEET 1 1372 1024
WIRE 240 -320 64 -320
WIRE -80 -304 -80 -320
WIRE 64 -240 64 -320
WIRE 112 -240 64 -240
WIRE 240 -224 240 -320
WIRE 240 -224 176 -224
WIRE 320 -224 240 -224
WIRE -80 -208 -80 -224
WIRE -80 -208 -128 -208
WIRE 112 -208 -80 -208
WIRE -128 -192 -128 -208
WIRE -80 -192 -80 -208
WIRE 144 -176 144 -192
WIRE -128 -96 -128 -128
WIRE -80 -96 -80 -112
WIRE 656 -48 656 -64
WIRE 656 48 656 32
WIRE 816 112 816 80
WIRE 848 112 848 64
WIRE 880 112 880 64
WIRE 912 112 912 64
WIRE 384 176 160 176
WIRE 640 176 464 176
WIRE 720 176 640 176
WIRE 784 176 720 176
WIRE 160 208 160 176
WIRE 992 208 944 208
WIRE 1008 208 992 208
WIRE 528 240 336 240
WIRE 720 240 608 240
WIRE 752 240 720 240
WIRE 784 240 752 240
WIRE 336 272 336 240
WIRE 816 320 816 304
WIRE 912 320 912 304
WIRE 864 336 864 304
WIRE 160 400 160 288
WIRE 336 400 336 352
WIRE 640 528 640 176
WIRE 720 528 720 240
WIRE 640 656 640 608
WIRE 688 656 640 656
WIRE 720 656 720 608
WIRE 720 656 688 656
WIRE 576 832 544 832
WIRE 688 832 688 656
WIRE 688 832 640 832
WIRE 688 912 688 832
WIRE 688 912 656 912
WIRE 432 928 400 928
WIRE 544 928 544 832
WIRE 544 928 512 928
WIRE 592 928 544 928
WIRE 736 944 656 944
WIRE 624 976 624 960
FLAG 320 -224 Vref
FLAG 144 -176 0
FLAG -80 -320 Vcc
FLAG -80 -96 0
FLAG -128 -96 0
FLAG 816 320 0
FLAG 912 64 0
FLAG 880 64 0
FLAG 848 64 0
FLAG 656 48 0
FLAG 656 -64 Vcc
FLAG 816 80 Vcc
FLAG 864 336 Vcc
FLAG 912 320 Vref
FLAG 992 208 Out
FLAG 144 -256 Vcc
FLAG 736 944 Vref
FLAG 400 928 Vrld
FLAG 624 896 Vcc
FLAG 624 976 0
FLAG 720 176 Vinp
FLAG 752 240 Vinn
FLAG 336 400 Vrld
FLAG 160 400 Vrld
SYMBOL OpAmps\\opamp2 144 -288 R0
SYMATTR InstName U1
SYMATTR Value ad8534
SYMBOL res -96 -320 R0
SYMATTR InstName R1
SYMATTR Value 100k
SYMBOL res -96 -208 R0
WINDOW 3 36 59 Left 2
SYMATTR Value 100k
SYMATTR InstName R2
SYMBOL cap -112 -128 R180
WINDOW 0 24 56 Left 2
WINDOW 3 20 15 Left 2
SYMATTR InstName C1
SYMATTR Value 1µ
SYMBOL OpAmps\\MAX41400 816 208 R0
WINDOW 3 141 -89 Left 2
SYMATTR InstName U2
SYMBOL voltage 656 -64 R0
SYMATTR InstName V1
SYMATTR Value 3.3V
SYMBOL voltage 160 192 R0
WINDOW 3 209 -463 Left 2
WINDOW 123 0 0 Left 0
WINDOW 39 0 0 Left 0
WINDOW 0 18 16 Left 2
SYMATTR Value PWL file=C:\users\andrei\Documents\Licenta\AchizitionareSemnal\ekg_signal.txt
SYMATTR InstName V2
SYMBOL voltage 336 256 R0
WINDOW 3 33 -566 Left 2
WINDOW 123 0 0 Left 0
WINDOW 39 0 0 Left 0
WINDOW 0 -64 33 Left 2
SYMATTR Value PWL file=C:\users\andrei\Documents\Licenta\AchizitionareSemnal\ekg_signal2.txt
SYMATTR InstName V3
SYMBOL voltage 480 176 R90
WINDOW 0 -32 56 VBottom 2
WINDOW 3 -78 60 VTop 2
WINDOW 123 0 0 Left 0
WINDOW 39 0 0 Left 0
SYMATTR InstName V4
SYMATTR Value SINE(0 100m 50)
SYMBOL voltage 624 240 R90
WINDOW 0 28 114 VBottom 2
WINDOW 3 33 102 VTop 2
WINDOW 123 0 0 Left 0
WINDOW 39 0 0 Left 0
SYMATTR InstName V5
SYMATTR Value SINE(0 100m 50)
SYMBOL res 704 512 R0
SYMATTR InstName R3
SYMATTR Value 1Meg
SYMBOL res 624 512 R0
WINDOW 0 -39 52 Left 2
WINDOW 3 -70 81 Left 2
SYMATTR InstName R4
SYMATTR Value 1Meg
SYMBOL OpAmps\\opamp2 624 864 M0
WINDOW 3 -42 144 Left 2
SYMATTR InstName U3
SYMATTR Value ad8534
SYMBOL cap 640 816 R90
WINDOW 0 0 32 VBottom 2
WINDOW 3 -13 69 VTop 2
SYMATTR InstName C2
SYMATTR Value 1n
SYMBOL res 528 912 R90
WINDOW 0 0 56 VBottom 2
WINDOW 3 32 56 VTop 2
SYMATTR InstName R5
SYMATTR Value 1Meg
TEXT 800 -80 Left 2 !.lib ad8534.cir
TEXT 800 -56 Left 2 ;.tran 5
TEXT 800 -40 Left 2 !.ac dec 100 0.1 1k
