Version 4.1
SHEET 1 1928 680
WIRE 816 -384 816 -400
WIRE 816 -288 816 -304
WIRE 976 -224 976 -256
WIRE 1008 -224 1008 -272
WIRE 1040 -224 1040 -272
WIRE 1072 -224 1072 -272
WIRE 944 -160 640 -160
WIRE 640 -128 640 -160
WIRE 1152 -128 1104 -128
WIRE 1168 -128 1152 -128
WIRE 944 -96 816 -96
WIRE 816 -64 816 -96
WIRE 640 -32 640 -48
WIRE 976 -16 976 -32
WIRE 1072 -16 1072 -32
WIRE 1024 0 1024 -32
WIRE 816 32 816 16
WIRE 384 144 208 144
WIRE 64 160 64 144
WIRE 208 224 208 144
WIRE 256 224 208 224
WIRE 384 240 384 144
WIRE 384 240 320 240
WIRE 464 240 384 240
WIRE 64 256 64 240
WIRE 64 256 16 256
WIRE 256 256 64 256
WIRE 16 272 16 256
WIRE 64 272 64 256
WIRE 288 288 288 272
WIRE 16 368 16 336
WIRE 64 368 64 352
FLAG 464 240 Vref
FLAG 288 288 0
FLAG 64 144 Vcc
FLAG 64 368 0
FLAG 16 368 0
FLAG 976 -16 0
FLAG 1072 -272 0
FLAG 1040 -272 0
FLAG 1008 -272 0
FLAG 816 -288 0
FLAG 816 -400 Vcc
FLAG 976 -256 Vcc
FLAG 1024 0 Vcc
FLAG 1072 -16 Vref
FLAG 1152 -128 Out
FLAG 288 208 Vcc
FLAG 816 32 Vref
FLAG 640 -32 Vref
SYMBOL OpAmps\\opamp2 288 176 R0
SYMATTR InstName U1
SYMATTR Value ad8534
SYMBOL res 48 144 R0
SYMATTR InstName R1
SYMATTR Value 100k
SYMBOL res 48 256 R0
WINDOW 3 36 59 Left 2
SYMATTR Value 100k
SYMATTR InstName R2
SYMBOL cap 32 336 R180
WINDOW 0 24 56 Left 2
WINDOW 3 20 15 Left 2
SYMATTR InstName C1
SYMATTR Value 1µ
SYMBOL OpAmps\\MAX41400 976 -128 R0
WINDOW 3 141 -89 Left 2
SYMATTR InstName U2
SYMBOL voltage 816 -400 R0
SYMATTR InstName V2
SYMATTR Value 3.3V
SYMBOL voltage 640 -144 R0
WINDOW 3 -950 -38 Left 2
WINDOW 123 0 0 Left 0
WINDOW 39 0 0 Left 0
SYMATTR Value PWL file=C:\users\andrei\Documents\Licenta\AchizitionareSemnal\ekg_signal.txt
SYMATTR InstName V4
SYMBOL voltage 816 -80 R0
WINDOW 3 -423 181 Left 2
WINDOW 123 0 0 Left 0
WINDOW 39 0 0 Left 0
WINDOW 0 -54 35 Left 2
SYMATTR Value PWL file=C:\users\andrei\Documents\Licenta\AchizitionareSemnal\ekg_signal2.txt
SYMATTR InstName V5
TEXT 960 -416 Left 2 !.lib ad8534.cir
TEXT 960 -392 Left 2 !.tran 5
