Version 4.1
SHEET 1 1184 1408
WIRE 864 448 832 448
WIRE 960 448 960 416
WIRE 960 448 928 448
WIRE 832 464 832 448
WIRE 960 496 960 448
WIRE 928 512 736 512
WIRE 928 544 832 544
WIRE 528 560 -496 560
WIRE 736 560 736 512
WIRE 736 560 528 560
WIRE 1120 592 1104 592
WIRE 608 624 -272 624
WIRE 736 624 608 624
WIRE 832 640 832 624
WIRE 928 640 832 640
WIRE -496 656 -496 560
WIRE -608 672 -704 672
WIRE -544 672 -608 672
WIRE 736 672 736 624
WIRE 928 672 736 672
WIRE -704 688 -704 672
WIRE 1040 688 1040 656
WIRE 960 704 960 688
WIRE -544 720 -576 720
WIRE -496 752 -496 736
WIRE -704 784 -704 768
WIRE -272 816 -272 624
WIRE -272 816 -496 816
WIRE -496 848 -496 816
WIRE -608 864 -608 672
WIRE -544 864 -608 864
WIRE -576 912 -576 720
WIRE -544 912 -576 912
WIRE 528 912 528 560
WIRE 608 912 608 624
WIRE -576 928 -576 912
WIRE -496 944 -496 928
WIRE -80 944 -80 928
WIRE -80 1040 -80 1024
WIRE 528 1040 528 992
WIRE 576 1040 528 1040
WIRE 608 1040 608 992
WIRE 608 1040 576 1040
WIRE -80 1168 -80 1120
WIRE 464 1216 432 1216
WIRE 576 1216 576 1040
WIRE 576 1216 528 1216
WIRE 576 1296 576 1216
WIRE 576 1296 544 1296
WIRE -80 1312 -80 1248
WIRE 288 1312 -80 1312
WIRE 320 1312 288 1312
WIRE 432 1312 432 1216
WIRE 432 1312 400 1312
WIRE 480 1312 432 1312
WIRE 624 1328 544 1328
WIRE 512 1360 512 1344
FLAG 336 448 0
FLAG 464 448 0
FLAG 464 368 Vcc
FLAG 336 368 Vref
FLAG 960 416 Vcc
FLAG 1120 592 VINA
FLAG 624 1328 Vref
FLAG 288 1312 Vrld
FLAG 512 1280 Vcc
FLAG 512 1360 0
FLAG 736 512 Vinp
FLAG 736 672 Vinn
FLAG 832 464 0
FLAG -704 784 0
FLAG -576 928 0
FLAG -80 928 VCM
FLAG -496 752 VCM
FLAG -496 944 VCM
FLAG 960 704 0
FLAG 1040 688 Vref
SYMBOL voltage 336 352 R0
SYMATTR InstName V1
SYMATTR Value 1.65
SYMBOL voltage 464 352 R0
SYMATTR InstName V2
SYMATTR Value 3.3
SYMBOL res 592 896 R0
SYMATTR InstName R1
SYMATTR Value 10Meg
SYMBOL res 512 896 R0
WINDOW 0 -39 52 Left 2
WINDOW 3 -70 81 Left 2
SYMATTR InstName R2
SYMATTR Value 10Meg
SYMBOL OpAmps\\opamp2 512 1248 M0
WINDOW 3 -42 144 Left 2
SYMATTR Value ad8534
SYMATTR InstName U1
SYMBOL cap 528 1200 R90
WINDOW 0 0 32 VBottom 2
WINDOW 3 -13 69 VTop 2
SYMATTR InstName C1
SYMATTR Value 1n
SYMBOL res 416 1296 R90
WINDOW 0 0 56 VBottom 2
WINDOW 3 32 56 VTop 2
SYMATTR InstName R3
SYMATTR Value 1Meg
SYMBOL cap 928 432 R90
WINDOW 0 0 32 VBottom 2
WINDOW 3 31 44 VTop 2
SYMATTR InstName C2
SYMATTR Value 100n
SYMBOL e -496 640 R0
WINDOW 3 26 81 Left 2
SYMATTR Value 0.5
SYMATTR InstName E1
SYMBOL e -496 832 R0
WINDOW 3 14 92 Left 2
SYMATTR Value -0.5
SYMATTR InstName E2
SYMBOL voltage -704 672 R0
WINDOW 3 -863 149 Left 2
WINDOW 123 0 0 Left 0
WINDOW 39 0 0 Left 0
SYMATTR Value PWL file=C:\Users\botaa\Documents\Licenta\Licenta\AchizitionareSemnal\ekg_signal_final.txt
SYMATTR InstName V3
SYMBOL voltage -80 1024 R0
WINDOW 0 24 29 Left 2
SYMATTR InstName V4
SYMATTR Value SINE(0 1 50)
SYMBOL voltage -80 1152 R0
WINDOW 0 27 34 Left 2
WINDOW 3 27 76 Left 2
WINDOW 123 0 0 Left 0
WINDOW 39 0 0 Left 0
SYMATTR InstName V5
SYMATTR Value SINE(0 100m 0.2)
SYMBOL bv -80 928 R0
SYMATTR InstName B1
SYMATTR Value V = white(time*1000)*200u
SYMBOL OpAmps\\AD8226 960 592 R0
SYMATTR InstName U2
SYMBOL res 816 528 R0
WINDOW 0 32 56 Left 2
WINDOW 3 24 82 Left 2
SYMATTR InstName R4
SYMATTR Value 49.9k
TEXT 720 336 Left 2 !.lib ad8534.cir
TEXT 720 360 Left 2 !.tran 0 35 30
