Version 4.1
SHEET 1 880 680
WIRE 112 -112 112 -144
WIRE 112 64 112 -32
WIRE 144 64 144 16
WIRE 176 64 176 16
WIRE 208 64 208 16
WIRE 80 128 -48 128
WIRE 304 160 240 160
WIRE 80 192 16 192
WIRE 16 208 16 192
WIRE -48 224 -48 208
WIRE 112 272 112 256
WIRE 208 272 208 256
WIRE 16 320 16 288
WIRE 208 368 208 352
WIRE 160 416 160 256
WIRE 160 512 160 496
FLAG 112 272 0
FLAG 208 16 0
FLAG 176 16 0
FLAG 144 16 0
FLAG -48 224 0
FLAG 16 320 0
FLAG 112 -144 0
FLAG 208 368 0
FLAG 160 512 0
SYMBOL OpAmps\\MAX41400 112 160 R0
SYMATTR InstName U1
SYMBOL voltage -48 112 R0
WINDOW 3 -235 17 Left 2
WINDOW 123 0 0 Left 0
WINDOW 39 0 0 Left 0
SYMATTR Value SINE(1.65 10m 1)
SYMATTR InstName V1
SYMBOL voltage 112 -16 R180
WINDOW 0 24 96 Left 2
WINDOW 3 24 16 Left 2
SYMATTR InstName V3
SYMATTR Value 3.3
SYMBOL voltage 208 256 R0
SYMATTR InstName V4
SYMATTR Value 1.65
SYMBOL voltage 160 400 R0
SYMATTR InstName V5
SYMATTR Value 3.3
SYMBOL voltage 16 192 R0
SYMATTR InstName V2
SYMATTR Value 1.65
TEXT -136 16 Left 2 !.tran 5
