Version 4.1
SHEET 1 880 680
WIRE -32 16 -32 0
WIRE 96 16 96 0
WIRE -32 112 -32 96
WIRE 96 112 96 96
WIRE 496 304 496 272
WIRE 528 304 528 256
WIRE 560 304 560 256
WIRE 592 304 592 256
WIRE 240 368 80 368
WIRE 464 368 320 368
WIRE 80 400 80 368
WIRE 80 400 16 400
WIRE 688 400 624 400
WIRE 16 432 16 400
WIRE 80 432 80 400
WIRE 240 432 80 432
WIRE 464 432 320 432
WIRE 496 512 496 496
WIRE 592 512 592 496
WIRE 16 528 16 512
WIRE 544 528 544 496
FLAG 496 512 0
FLAG 592 256 0
FLAG 560 256 0
FLAG 528 256 0
FLAG -32 112 0
FLAG -32 0 Vcc
FLAG 496 272 Vcc
FLAG 544 528 Vcc
FLAG 96 112 0
FLAG 96 0 Vref
FLAG 592 512 Vref
FLAG 16 528 0
SYMBOL OpAmps\\MAX41400 496 400 R0
SYMATTR InstName U1
SYMBOL voltage -32 0 R0
SYMATTR InstName V2
SYMATTR Value 3.3V
SYMBOL voltage 96 0 R0
SYMATTR InstName V3
SYMATTR Value 1.65
SYMBOL voltage 16 416 R0
WINDOW 123 0 0 Left 0
WINDOW 39 0 0 Left 0
SYMATTR InstName V1
SYMATTR Value SINE(1.65 50m 50)
SYMBOL res 336 352 R90
WINDOW 0 0 56 VBottom 2
WINDOW 3 32 56 VTop 2
SYMATTR InstName R1
SYMATTR Value 51k
SYMBOL res 336 416 R90
WINDOW 0 18 110 VBottom 2
WINDOW 3 32 56 VTop 2
SYMATTR InstName R2
SYMATTR Value 47k
TEXT 504 200 Left 2 !.tran 0.1
