Version 4.1
SHEET 1 880 680
WIRE -208 -64 -208 -80
WIRE -80 -64 -80 -80
WIRE -208 32 -208 16
WIRE -80 32 -80 16
WIRE 320 224 320 192
WIRE 352 224 352 176
WIRE 384 224 384 176
WIRE 416 224 416 176
WIRE 288 288 -96 288
WIRE 496 320 448 320
WIRE 512 320 496 320
WIRE 288 352 240 352
WIRE -96 384 -96 368
WIRE 320 432 320 416
WIRE 416 432 416 416
WIRE 368 448 368 416
FLAG 320 432 0
FLAG 416 176 0
FLAG 384 176 0
FLAG 352 176 0
FLAG -208 32 0
FLAG -208 -80 Vcc
FLAG 320 192 Vcc
FLAG 368 448 Vcc
FLAG -80 32 0
FLAG -80 -80 Vref
FLAG 416 432 Vref
FLAG -96 384 0
FLAG 240 352 Vref
FLAG 496 320 Out
SYMBOL OpAmps\\MAX41400 320 320 R0
SYMATTR InstName U1
SYMBOL voltage -208 -80 R0
SYMATTR InstName V1
SYMATTR Value 3.3V
SYMBOL voltage -80 -80 R0
SYMATTR InstName V2
SYMATTR Value 1.65
SYMBOL voltage -96 272 R0
WINDOW 123 24 124 Left 2
WINDOW 39 0 0 Left 0
SYMATTR Value2 AC 1
SYMATTR InstName V3
SYMATTR Value SINE(1.65 10m 1)
TEXT 328 120 Left 2 ;.tran 5
TEXT -152 232 Left 2 !.noise V(OUT) V3 dec 100 0.1 100
