Version 4.1
SHEET 1 1328 680
WIRE -112 -64 -112 -80
WIRE 16 -64 16 -80
WIRE -112 32 -112 16
WIRE 16 32 16 16
WIRE 416 224 416 192
WIRE 448 224 448 176
WIRE 480 224 480 176
WIRE 512 224 512 176
WIRE 384 288 80 288
WIRE 80 320 80 288
WIRE 592 320 544 320
WIRE 608 320 592 320
WIRE 384 352 304 352
WIRE 304 384 304 352
WIRE 80 416 80 400
WIRE 416 432 416 416
WIRE 512 432 512 416
WIRE 464 448 464 416
WIRE 304 480 304 464
FLAG 416 432 0
FLAG 512 176 0
FLAG 480 176 0
FLAG 448 176 0
FLAG -112 32 0
FLAG -112 -80 Vcc
FLAG 416 192 Vcc
FLAG 464 448 Vcc
FLAG 16 32 0
FLAG 16 -80 Vref
FLAG 512 432 Vref
FLAG 592 320 Out
FLAG 80 496 0
FLAG 304 560 0
SYMBOL OpAmps\\MAX41400 416 320 R0
WINDOW 3 141 -89 Left 2
SYMATTR InstName U1
SYMBOL voltage -112 -80 R0
SYMATTR InstName V1
SYMATTR Value 3.3V
SYMBOL voltage 16 -80 R0
SYMATTR InstName V2
SYMATTR Value 1.65
SYMBOL voltage 80 304 R0
WINDOW 3 -777 -50 Left 2
WINDOW 123 0 0 Left 0
WINDOW 39 0 0 Left 0
SYMATTR InstName V3
SYMATTR Value PWL file=C:\users\andrei\Documents\Licenta\AchizitionareSemnal\ekg_signal.txt
SYMBOL voltage 304 368 R0
WINDOW 3 -431 237 Left 2
WINDOW 123 0 0 Left 0
WINDOW 39 0 0 Left 0
SYMATTR InstName V4
SYMATTR Value PWL file=C:\users\andrei\Documents\Licenta\AchizitionareSemnal\ekg_signal2.txt
SYMBOL voltage 80 400 R0
SYMATTR InstName V5
SYMATTR Value 1.65
SYMBOL voltage 304 464 R0
SYMATTR InstName V6
SYMATTR Value 1.65
TEXT 424 120 Left 2 !.tran 5
