Version 4.1
SHEET 1 1100 700
WIRE 112 16 112 0
WIRE 240 16 240 0
WIRE 640 48 640 32
WIRE 112 112 112 96
WIRE 240 112 240 96
WIRE 640 304 640 128
WIRE 672 304 672 256
WIRE 704 304 704 256
WIRE 736 304 736 256
WIRE 608 368 384 368
WIRE 816 400 768 400
WIRE 832 400 816 400
WIRE 608 432 576 432
WIRE 576 464 576 432
WIRE 384 480 384 368
WIRE 640 512 640 496
WIRE 736 512 736 496
WIRE 688 528 688 496
FLAG 640 512 0
FLAG 736 256 0
FLAG 704 256 0
FLAG 672 256 0
FLAG 112 112 0
FLAG 112 0 Vcc
FLAG 640 32 Vcc
FLAG 688 528 Vcc
FLAG 240 112 0
FLAG 240 0 Vref
FLAG 736 512 Vref
FLAG 816 400 Out
FLAG 384 480 0
FLAG 576 464 0
SYMBOL OpAmps\\MAX41400 640 400 R0
WINDOW 3 141 -89 Left 2
SYMATTR InstName U1
SYMBOL voltage 112 0 R0
SYMATTR InstName V1
SYMATTR Value 3.3V
SYMBOL voltage 240 0 R0
SYMATTR InstName V2
SYMATTR Value 1.65
SYMBOL voltage 640 144 R180
WINDOW 0 24 96 Left 2
WINDOW 3 24 16 Left 2
WINDOW 123 24 -12 Left 2
WINDOW 39 0 0 Left 0
SYMATTR InstName V3
SYMATTR Value ""
SYMATTR Value2 AC 0.1
TEXT 648 200 Left 2 ;.tran 5
TEXT 648 168 Left 2 !.ac dec 100 0.1 10k
