Version 4.1
SHEET 1 3224 848
WIRE -304 -176 -304 -192
WIRE -160 -176 -160 -192
WIRE 656 -160 624 -160
WIRE 1008 -160 736 -160
WIRE 288 -128 272 -128
WIRE 320 -128 304 -128
WIRE 352 -128 336 -128
WIRE 144 -112 112 -112
WIRE 240 -112 240 -144
WIRE 240 -112 208 -112
WIRE 288 -112 288 -128
WIRE 320 -112 320 -128
WIRE 352 -112 352 -128
WIRE 2480 -112 2288 -112
WIRE 2688 -112 2544 -112
WIRE 112 -96 112 -112
WIRE 240 -64 240 -112
WIRE 272 -64 272 -128
WIRE 304 -64 304 -128
WIRE 336 -64 336 -128
WIRE -160 0 -416 0
WIRE 64 0 -80 0
WIRE 144 0 64 0
WIRE 208 0 144 0
WIRE -416 32 -416 0
WIRE 416 32 368 32
WIRE 512 32 416 32
WIRE 624 32 624 -160
WIRE 624 32 576 32
WIRE 656 32 624 32
WIRE 752 32 720 32
WIRE 832 32 752 32
WIRE 752 48 752 32
WIRE 1008 48 1008 -160
WIRE 1008 48 896 48
WIRE 1104 48 1008 48
WIRE 1216 48 1168 48
WIRE 1344 48 1216 48
WIRE -160 64 -336 64
WIRE 144 64 -80 64
WIRE 176 64 144 64
WIRE 208 64 176 64
WIRE 832 64 816 64
WIRE 1216 64 1216 48
WIRE 1472 64 1408 64
WIRE 1696 64 1472 64
WIRE 1824 64 1776 64
WIRE 1952 64 1824 64
WIRE 1344 80 1312 80
WIRE 2080 80 2016 80
WIRE 2176 80 2080 80
WIRE 2288 80 2288 -112
WIRE 2288 80 2256 80
WIRE 2320 80 2288 80
WIRE 2432 80 2400 80
WIRE 2512 80 2432 80
WIRE 1952 96 1920 96
WIRE 2080 96 2080 80
WIRE 2432 96 2432 80
WIRE 2688 96 2688 -112
WIRE 2688 96 2576 96
WIRE 2912 96 2688 96
WIRE 2928 96 2912 96
WIRE 2512 112 2480 112
WIRE 240 144 240 128
WIRE 336 144 336 128
WIRE 752 144 752 128
WIRE 1824 144 1824 128
WIRE 288 160 288 128
WIRE 1216 160 1216 144
WIRE -336 176 -336 64
WIRE 1920 192 1920 96
WIRE 2080 192 2080 176
WIRE 2080 192 1920 192
WIRE 2480 192 2480 112
WIRE 2688 192 2688 96
WIRE 2688 192 2480 192
WIRE 816 208 816 64
WIRE 1008 208 1008 48
WIRE 1008 208 816 208
WIRE -416 224 -416 112
WIRE 2080 224 2080 192
WIRE 1312 240 1312 80
WIRE 1472 240 1472 64
WIRE 1472 240 1312 240
WIRE -336 304 -336 256
WIRE 64 352 64 0
WIRE 144 352 144 64
WIRE 64 480 64 432
WIRE 112 480 64 480
WIRE 144 480 144 432
WIRE 144 480 112 480
WIRE 0 656 -32 656
WIRE 112 656 112 480
WIRE 112 656 64 656
WIRE 112 736 112 656
WIRE 112 736 80 736
WIRE -144 752 -176 752
WIRE -32 752 -32 656
WIRE -32 752 -64 752
WIRE 16 752 -32 752
WIRE 160 768 80 768
WIRE 48 800 48 784
FLAG 240 144 0
FLAG 352 -112 0
FLAG 320 -112 0
FLAG 288 -112 0
FLAG 240 -144 Vcc
FLAG 288 160 Vcc
FLAG 336 144 Vref
FLAG 416 32 Out
FLAG 160 768 Vref
FLAG -176 752 Vrld
FLAG 48 720 Vcc
FLAG 48 800 0
FLAG 144 0 Vinp
FLAG 176 64 Vinn
FLAG -336 304 Vrld
FLAG -416 224 Vrld
FLAG 112 -96 0
FLAG -304 -176 0
FLAG -304 -272 Vcc
FLAG -160 -176 0
FLAG -160 -272 Vref
FLAG 1824 144 Vref
FLAG 2080 304 Vref
FLAG 2432 160 Vref
FLAG 2544 64 0
FLAG 1984 48 0
FLAG 1984 112 Vcc
FLAG 2544 128 Vcc
FLAG 864 80 Vcc
FLAG 864 16 0
FLAG 1376 32 0
FLAG 1376 96 Vcc
FLAG 752 144 Vref
FLAG 1216 160 Vref
FLAG 2912 96 Vekg
SYMBOL OpAmps\\MAX41400 240 32 R0
WINDOW 3 141 -89 Left 2
SYMATTR InstName U1
SYMBOL voltage -416 16 R0
WINDOW 3 209 -463 Left 2
WINDOW 123 0 0 Left 0
WINDOW 39 0 0 Left 0
WINDOW 0 18 16 Left 2
SYMATTR Value PWL file=C:\users\andrei\Documents\Licenta\AchizitionareSemnal\ekg_signal.txt
SYMATTR InstName V1
SYMBOL voltage -336 160 R0
WINDOW 3 131 -627 Left 2
WINDOW 123 0 0 Left 0
WINDOW 39 0 0 Left 0
WINDOW 0 26 30 Left 2
SYMATTR Value PWL file=C:\users\andrei\Documents\Licenta\AchizitionareSemnal\ekg_signal2.txt
SYMATTR InstName V2
SYMBOL res 128 336 R0
SYMATTR InstName R1
SYMATTR Value 1Meg
SYMBOL res 48 336 R0
WINDOW 0 -39 52 Left 2
WINDOW 3 -70 81 Left 2
SYMATTR InstName R2
SYMATTR Value 1Meg
SYMBOL OpAmps\\opamp2 48 688 M0
WINDOW 3 -42 144 Left 2
SYMATTR Value ad8534
SYMATTR InstName U2
SYMBOL cap 64 640 R90
WINDOW 0 0 32 VBottom 2
WINDOW 3 -13 69 VTop 2
SYMATTR InstName C1
SYMATTR Value 1n
SYMBOL res -48 736 R90
WINDOW 0 0 56 VBottom 2
WINDOW 3 32 56 VTop 2
SYMATTR InstName R3
SYMATTR Value 1Meg
SYMBOL cap 208 -128 R90
WINDOW 0 0 32 VBottom 2
WINDOW 3 31 44 VTop 2
SYMATTR InstName C2
SYMATTR Value 100n
SYMBOL res -64 -16 R90
WINDOW 0 0 56 VBottom 2
WINDOW 3 32 56 VTop 2
SYMATTR InstName R4
SYMATTR Value 10k
SYMBOL res -64 48 R90
WINDOW 0 16 102 VBottom 2
WINDOW 3 32 56 VTop 2
SYMATTR InstName R5
SYMATTR Value 10k
SYMBOL voltage -304 -288 R0
SYMATTR InstName V3
SYMATTR Value 3.3
SYMBOL voltage -160 -288 R0
SYMATTR InstName V4
SYMATTR Value 1.65
SYMBOL OpAmps\\opamp2 1984 144 M180
SYMATTR InstName U3
SYMATTR Value ad8534
SYMBOL res 1792 48 R90
WINDOW 0 0 56 VBottom 2
WINDOW 3 32 56 VTop 2
SYMATTR InstName R6
SYMATTR Value 8.01k
SYMBOL cap 1808 64 R0
SYMATTR InstName C3
SYMATTR Value 100n
SYMBOL res 2064 80 R0
SYMATTR InstName R7
SYMATTR Value 9k
SYMBOL res 2064 208 R0
SYMATTR InstName R8
SYMATTR Value 1k
SYMBOL res 2272 64 R90
WINDOW 0 0 56 VBottom 2
WINDOW 3 32 56 VTop 2
SYMATTR InstName R9
SYMATTR Value 7.66k
SYMBOL res 2416 64 R90
WINDOW 0 0 56 VBottom 2
WINDOW 3 37 52 VTop 2
SYMATTR InstName R10
SYMATTR Value 14.9k
SYMBOL cap 2544 -128 R90
WINDOW 0 0 32 VBottom 2
WINDOW 3 32 32 VTop 2
SYMATTR InstName C4
SYMATTR Value 100n
SYMBOL OpAmps\\opamp2 2544 160 M180
SYMATTR InstName U4
SYMATTR Value ad8534
SYMBOL cap 2416 96 R0
WINDOW 0 -30 46 Left 2
WINDOW 3 -59 62 Left 2
SYMATTR InstName C5
SYMATTR Value 47n
SYMBOL OpAmps\\opamp2 864 112 M180
SYMATTR InstName U5
SYMATTR Value ad8534
SYMBOL cap 576 16 R90
WINDOW 0 0 32 VBottom 2
WINDOW 3 32 32 VTop 2
SYMATTR InstName C6
SYMATTR Value 10µ
SYMBOL cap 720 16 R90
WINDOW 0 0 32 VBottom 2
WINDOW 3 32 32 VTop 2
SYMATTR InstName C7
SYMATTR Value 10µ
SYMBOL res 736 32 R0
WINDOW 0 -52 89 Left 2
WINDOW 3 -66 111 Left 2
SYMATTR InstName R13
SYMATTR Value 319k
SYMBOL res 752 -176 R90
WINDOW 0 0 56 VBottom 2
WINDOW 3 32 56 VTop 2
SYMATTR InstName R14
SYMATTR Value 167k
SYMBOL cap 1168 32 R90
WINDOW 0 0 32 VBottom 2
WINDOW 3 32 32 VTop 2
SYMATTR InstName C8
SYMATTR Value 10µ
SYMBOL res 1200 48 R0
SYMATTR InstName R15
SYMATTR Value 211k
SYMBOL OpAmps\\opamp2 1376 128 M180
SYMATTR InstName U6
SYMATTR Value ad8534
TEXT 224 -256 Left 2 !.lib ad8534.cir
TEXT 224 -232 Left 2 !.tran 30
TEXT 224 -216 Left 2 ;.ac dec 100 0.1 1k
