Version 4.1
SHEET 1 1292 864
WIRE 192 -160 192 -176
WIRE 336 -160 336 -176
WIRE 784 -112 768 -112
WIRE 816 -112 800 -112
WIRE 848 -112 832 -112
WIRE 640 -96 608 -96
WIRE 736 -96 736 -128
WIRE 736 -96 704 -96
WIRE 784 -96 784 -112
WIRE 816 -96 816 -112
WIRE 848 -96 848 -112
WIRE 608 -80 608 -96
WIRE 736 -48 736 -96
WIRE 768 -48 768 -112
WIRE 800 -48 800 -112
WIRE 832 -48 832 -112
WIRE 336 16 80 16
WIRE 560 16 416 16
WIRE 640 16 560 16
WIRE 704 16 640 16
WIRE 80 48 80 16
WIRE 912 48 864 48
WIRE 928 48 912 48
WIRE 336 80 160 80
WIRE 640 80 416 80
WIRE 672 80 640 80
WIRE 704 80 672 80
WIRE 736 160 736 144
WIRE 832 160 832 144
WIRE 784 176 784 144
WIRE 160 192 160 80
WIRE 80 240 80 128
WIRE 160 320 160 272
WIRE 560 368 560 16
WIRE 640 368 640 80
WIRE 560 496 560 448
WIRE 608 496 560 496
WIRE 640 496 640 448
WIRE 640 496 608 496
WIRE 496 672 464 672
WIRE 608 672 608 496
WIRE 608 672 560 672
WIRE 608 752 608 672
WIRE 608 752 576 752
WIRE 352 768 320 768
WIRE 464 768 464 672
WIRE 464 768 432 768
WIRE 512 768 464 768
WIRE 656 784 576 784
WIRE 544 816 544 800
FLAG 736 160 0
FLAG 848 -96 0
FLAG 816 -96 0
FLAG 784 -96 0
FLAG 736 -128 Vcc
FLAG 784 176 Vcc
FLAG 832 160 Vref
FLAG 912 48 Out
FLAG 656 784 Vref
FLAG 320 768 Vrld
FLAG 544 736 Vcc
FLAG 544 816 0
FLAG 640 16 Vinp
FLAG 672 80 Vinn
FLAG 160 320 Vrld
FLAG 80 240 Vrld
FLAG 608 -80 0
FLAG 192 -160 0
FLAG 192 -256 Vcc
FLAG 336 -160 0
FLAG 336 -256 Vref
SYMBOL OpAmps\\MAX41400 736 48 R0
WINDOW 3 141 -89 Left 2
SYMATTR InstName U2
SYMBOL voltage 80 32 R0
WINDOW 3 209 -463 Left 2
WINDOW 123 0 0 Left 0
WINDOW 39 0 0 Left 0
WINDOW 0 18 16 Left 2
SYMATTR Value PWL file=C:\users\andrei\Documents\Licenta\AchizitionareSemnal\ekg_signal.txt
SYMATTR InstName V2
SYMBOL voltage 160 176 R0
WINDOW 3 131 -627 Left 2
WINDOW 123 0 0 Left 0
WINDOW 39 0 0 Left 0
WINDOW 0 26 30 Left 2
SYMATTR Value PWL file=C:\users\andrei\Documents\Licenta\AchizitionareSemnal\ekg_signal2.txt
SYMATTR InstName V3
SYMBOL res 624 352 R0
SYMATTR InstName R3
SYMATTR Value 1Meg
SYMBOL res 544 352 R0
WINDOW 0 -39 52 Left 2
WINDOW 3 -70 81 Left 2
SYMATTR InstName R4
SYMATTR Value 1Meg
SYMBOL OpAmps\\opamp2 544 704 M0
WINDOW 3 -42 144 Left 2
SYMATTR Value ad8534
SYMATTR InstName U3
SYMBOL cap 560 656 R90
WINDOW 0 0 32 VBottom 2
WINDOW 3 -13 69 VTop 2
SYMATTR InstName C2
SYMATTR Value 1n
SYMBOL res 448 752 R90
WINDOW 0 0 56 VBottom 2
WINDOW 3 32 56 VTop 2
SYMATTR InstName R5
SYMATTR Value 1Meg
SYMBOL cap 704 -112 R90
WINDOW 0 0 32 VBottom 2
WINDOW 3 31 44 VTop 2
SYMATTR InstName C5
SYMATTR Value 100n
SYMBOL res 432 0 R90
WINDOW 0 0 56 VBottom 2
WINDOW 3 32 56 VTop 2
SYMATTR InstName R6
SYMATTR Value 10k
SYMBOL res 432 64 R90
WINDOW 0 16 102 VBottom 2
WINDOW 3 32 56 VTop 2
SYMATTR InstName R7
SYMATTR Value 10k
SYMBOL voltage 192 -272 R0
SYMATTR InstName V1
SYMATTR Value 3.3
SYMBOL voltage 336 -272 R0
SYMATTR InstName V6
SYMATTR Value 1.65
TEXT 720 -240 Left 2 !.lib ad8534.cir
TEXT 720 -216 Left 2 !.tran 5
TEXT 720 -200 Left 2 ;.ac dec 100 0.1 1k
