Version 4.1
SHEET 1 1080 680
WIRE 832 -112 832 -144
WIRE 704 16 688 16
WIRE 832 16 832 -32
WIRE 832 16 768 16
WIRE 688 32 688 16
WIRE 832 64 832 16
WIRE 832 64 672 64
WIRE 832 112 832 64
WIRE 672 240 672 64
WIRE 704 240 672 240
WIRE 1008 240 960 240
WIRE 1024 240 1008 240
WIRE 1008 256 1008 240
WIRE 1008 336 1008 320
WIRE 832 400 832 368
FLAG 832 -144 0
FLAG 832 400 0
FLAG 1024 240 Vcc
FLAG 1008 336 0
FLAG 688 32 0
SYMBOL PowerProducts\\ADP151-3.3 832 240 R0
SYMATTR InstName U2
SYMBOL voltage 832 -16 R180
WINDOW 0 24 96 Left 2
WINDOW 3 24 16 Left 2
SYMATTR InstName Vusb1
SYMATTR Value 5
SYMBOL cap 992 256 R0
SYMATTR InstName C1
SYMATTR Value 1µ
SYMATTR SpiceLine Rser=0.5
SYMBOL cap 704 32 R270
WINDOW 0 32 32 VTop 2
WINDOW 3 0 32 VBottom 2
SYMATTR InstName C2
SYMATTR Value 1µ
